* XSpice netlist created from SPICE and liberty sources by spi2xspice.py
*SPICE netlist created from verilog structural netlist module RISCV32I by vlog2Spice (qflow)
** Start of included library /usr/share/qflow/tech/osu018/osu018_stdcells.sp
** End of included library /usr/share/qflow/tech/osu018/osu018_stdcells.sp
.subckt RISCV32I a_vdd a_gnd a_CLK a_DMEM_ADDR_0_ a_DMEM_ADDR_1_ a_DMEM_ADDR_2_ a_DMEM_ADDR_3_ a_DMEM_ADDR_4_ a_DMEM_ADDR_5_ a_DMEM_ADDR_6_ a_DMEM_ADDR_7_ a_DMEM_ADDR_8_ a_DMEM_ADDR_9_ a_DMEM_ADDR_10_ a_DMEM_ADDR_11_ a_DMEM_ADDR_12_ a_DMEM_ADDR_13_ a_DMEM_ADDR_14_ a_DMEM_ADDR_15_ a_DMEM_ADDR_16_ a_DMEM_ADDR_17_ a_DMEM_ADDR_18_ a_DMEM_ADDR_19_ a_DMEM_ADDR_20_ a_DMEM_ADDR_21_ a_DMEM_ADDR_22_ a_DMEM_ADDR_23_ a_DMEM_ADDR_24_ a_DMEM_ADDR_25_ a_DMEM_ADDR_26_ a_DMEM_ADDR_27_ a_DMEM_ADDR_28_ a_DMEM_ADDR_29_ a_DMEM_ADDR_30_ a_DMEM_ADDR_31_ a_DMEM_DATA_L_0_ a_DMEM_DATA_L_1_ a_DMEM_DATA_L_2_ a_DMEM_DATA_L_3_ a_DMEM_DATA_L_4_ a_DMEM_DATA_L_5_ a_DMEM_DATA_L_6_ a_DMEM_DATA_L_7_ a_DMEM_DATA_L_8_ a_DMEM_DATA_L_9_ a_DMEM_DATA_L_10_ a_DMEM_DATA_L_11_ a_DMEM_DATA_L_12_ a_DMEM_DATA_L_13_ a_DMEM_DATA_L_14_ a_DMEM_DATA_L_15_ a_DMEM_DATA_L_16_ a_DMEM_DATA_L_17_ a_DMEM_DATA_L_18_ a_DMEM_DATA_L_19_ a_DMEM_DATA_L_20_ a_DMEM_DATA_L_21_ a_DMEM_DATA_L_22_ a_DMEM_DATA_L_23_ a_DMEM_DATA_L_24_ a_DMEM_DATA_L_25_ a_DMEM_DATA_L_26_ a_DMEM_DATA_L_27_ a_DMEM_DATA_L_28_ a_DMEM_DATA_L_29_ a_DMEM_DATA_L_30_ a_DMEM_DATA_L_31_ a_DMEM_DATA_S_0_ a_DMEM_DATA_S_1_ a_DMEM_DATA_S_2_ a_DMEM_DATA_S_3_ a_DMEM_DATA_S_4_ a_DMEM_DATA_S_5_ a_DMEM_DATA_S_6_ a_DMEM_DATA_S_7_ a_DMEM_DATA_S_8_ a_DMEM_DATA_S_9_ a_DMEM_DATA_S_10_ a_DMEM_DATA_S_11_ a_DMEM_DATA_S_12_ a_DMEM_DATA_S_13_ a_DMEM_DATA_S_14_ a_DMEM_DATA_S_15_ a_DMEM_DATA_S_16_ a_DMEM_DATA_S_17_ a_DMEM_DATA_S_18_ a_DMEM_DATA_S_19_ a_DMEM_DATA_S_20_ a_DMEM_DATA_S_21_ a_DMEM_DATA_S_22_ a_DMEM_DATA_S_23_ a_DMEM_DATA_S_24_ a_DMEM_DATA_S_25_ a_DMEM_DATA_S_26_ a_DMEM_DATA_S_27_ a_DMEM_DATA_S_28_ a_DMEM_DATA_S_29_ a_DMEM_DATA_S_30_ a_DMEM_DATA_S_31_ a_DMEM_WEN a_IMEM_ADDR_0_ a_IMEM_ADDR_1_ a_IMEM_ADDR_2_ a_IMEM_ADDR_3_ a_IMEM_ADDR_4_ a_IMEM_ADDR_5_ a_IMEM_ADDR_6_ a_IMEM_ADDR_7_ a_IMEM_ADDR_8_ a_IMEM_ADDR_9_ a_IMEM_ADDR_10_ a_IMEM_ADDR_11_ a_IMEM_ADDR_12_ a_IMEM_ADDR_13_ a_IMEM_ADDR_14_ a_IMEM_ADDR_15_ a_IMEM_ADDR_16_ a_IMEM_ADDR_17_ a_IMEM_ADDR_18_ a_IMEM_ADDR_19_ a_IMEM_ADDR_20_ a_IMEM_ADDR_21_ a_IMEM_ADDR_22_ a_IMEM_ADDR_23_ a_IMEM_ADDR_24_ a_IMEM_ADDR_25_ a_IMEM_ADDR_26_ a_IMEM_ADDR_27_ a_IMEM_ADDR_28_ a_IMEM_ADDR_29_ a_IMEM_ADDR_30_ a_IMEM_ADDR_31_ a_IMEM_DATA_0_ a_IMEM_DATA_1_ a_IMEM_DATA_2_ a_IMEM_DATA_3_ a_IMEM_DATA_4_ a_IMEM_DATA_5_ a_IMEM_DATA_6_ a_IMEM_DATA_7_ a_IMEM_DATA_8_ a_IMEM_DATA_9_ a_IMEM_DATA_10_ a_IMEM_DATA_11_ a_IMEM_DATA_12_ a_IMEM_DATA_13_ a_IMEM_DATA_14_ a_IMEM_DATA_15_ a_IMEM_DATA_16_ a_IMEM_DATA_17_ a_IMEM_DATA_18_ a_IMEM_DATA_19_ a_IMEM_DATA_20_ a_IMEM_DATA_21_ a_IMEM_DATA_22_ a_IMEM_DATA_23_ a_IMEM_DATA_24_ a_IMEM_DATA_25_ a_IMEM_DATA_26_ a_IMEM_DATA_27_ a_IMEM_DATA_28_ a_IMEM_DATA_29_ a_IMEM_DATA_30_ a_IMEM_DATA_31_ a_IRQ
ABUFX2_insert1463 [\datapath.idinstr\_16_] \datapath.idinstr_16_hier0_bF$buf0\ d_lut_BUFX2
ABUFX2_insert1462 [\datapath.idinstr\_16_] \datapath.idinstr_16_hier0_bF$buf1\ d_lut_BUFX2
ABUFX2_insert1461 [\datapath.idinstr\_16_] \datapath.idinstr_16_hier0_bF$buf2\ d_lut_BUFX2
ABUFX2_insert1460 [\datapath.idinstr\_16_] \datapath.idinstr_16_hier0_bF$buf3\ d_lut_BUFX2
ABUFX2_insert1459 [\datapath.idinstr\_16_] \datapath.idinstr_16_hier0_bF$buf4\ d_lut_BUFX2
ABUFX2_insert1458 [\datapath.idinstr\_16_] \datapath.idinstr_16_hier0_bF$buf5\ d_lut_BUFX2
ABUFX2_insert1457 [\datapath.idinstr\_22_] \datapath.idinstr_22_hier0_bF$buf0\ d_lut_BUFX2
ABUFX2_insert1456 [\datapath.idinstr\_22_] \datapath.idinstr_22_hier0_bF$buf1\ d_lut_BUFX2
ABUFX2_insert1455 [\datapath.idinstr\_22_] \datapath.idinstr_22_hier0_bF$buf2\ d_lut_BUFX2
ABUFX2_insert1454 [\datapath.idinstr\_22_] \datapath.idinstr_22_hier0_bF$buf3\ d_lut_BUFX2
ABUFX2_insert1453 [\datapath.idinstr\_22_] \datapath.idinstr_22_hier0_bF$buf4\ d_lut_BUFX2
ABUFX2_insert1452 [\datapath.idinstr\_22_] \datapath.idinstr_22_hier0_bF$buf5\ d_lut_BUFX2
ACLKBUF1_insert1451 [CLK] CLK_hier0_bF$buf0 d_lut_CLKBUF1
ACLKBUF1_insert1450 [CLK] CLK_hier0_bF$buf1 d_lut_CLKBUF1
ACLKBUF1_insert1449 [CLK] CLK_hier0_bF$buf2 d_lut_CLKBUF1
ACLKBUF1_insert1448 [CLK] CLK_hier0_bF$buf3 d_lut_CLKBUF1
ACLKBUF1_insert1447 [CLK] CLK_hier0_bF$buf4 d_lut_CLKBUF1
ACLKBUF1_insert1446 [CLK] CLK_hier0_bF$buf5 d_lut_CLKBUF1
ACLKBUF1_insert1445 [CLK] CLK_hier0_bF$buf6 d_lut_CLKBUF1
ACLKBUF1_insert1444 [CLK] CLK_hier0_bF$buf7 d_lut_CLKBUF1
ACLKBUF1_insert1443 [CLK] CLK_hier0_bF$buf8 d_lut_CLKBUF1
ACLKBUF1_insert1442 [CLK] CLK_hier0_bF$buf9 d_lut_CLKBUF1
ACLKBUF1_insert1441 [CLK] CLK_hier0_bF$buf10 d_lut_CLKBUF1
ACLKBUF1_insert1440 [CLK] CLK_hier0_bF$buf11 d_lut_CLKBUF1
ABUFX2_insert1439 [\datapath.idinstr\_17_] \datapath.idinstr_17_hier0_bF$buf0\ d_lut_BUFX2
ABUFX2_insert1438 [\datapath.idinstr\_17_] \datapath.idinstr_17_hier0_bF$buf1\ d_lut_BUFX2
ABUFX2_insert1437 [\datapath.idinstr\_17_] \datapath.idinstr_17_hier0_bF$buf2\ d_lut_BUFX2
ABUFX2_insert1436 [\datapath.idinstr\_17_] \datapath.idinstr_17_hier0_bF$buf3\ d_lut_BUFX2
ABUFX2_insert1435 [\datapath.idinstr\_17_] \datapath.idinstr_17_hier0_bF$buf4\ d_lut_BUFX2
ABUFX2_insert1434 [\datapath.idinstr\_17_] \datapath.idinstr_17_hier0_bF$buf5\ d_lut_BUFX2
ABUFX2_insert1433 [\datapath.idinstr\_20_] \datapath.idinstr_20_hier0_bF$buf0\ d_lut_BUFX2
ABUFX2_insert1432 [\datapath.idinstr\_20_] \datapath.idinstr_20_hier0_bF$buf1\ d_lut_BUFX2
ABUFX2_insert1431 [\datapath.idinstr\_20_] \datapath.idinstr_20_hier0_bF$buf2\ d_lut_BUFX2
ABUFX2_insert1430 [\datapath.idinstr\_20_] \datapath.idinstr_20_hier0_bF$buf3\ d_lut_BUFX2
ABUFX2_insert1429 [\datapath.idinstr\_20_] \datapath.idinstr_20_hier0_bF$buf4\ d_lut_BUFX2
ABUFX2_insert1428 [\datapath.idinstr\_20_] \datapath.idinstr_20_hier0_bF$buf5\ d_lut_BUFX2
ABUFX2_insert1427 [\datapath.idinstr\_20_] \datapath.idinstr_20_hier0_bF$buf6\ d_lut_BUFX2
ABUFX2_insert1426 [\datapath.idinstr\_15_] \datapath.idinstr_15_hier0_bF$buf0\ d_lut_BUFX2
ABUFX2_insert1425 [\datapath.idinstr\_15_] \datapath.idinstr_15_hier0_bF$buf1\ d_lut_BUFX2
ABUFX2_insert1424 [\datapath.idinstr\_15_] \datapath.idinstr_15_hier0_bF$buf2\ d_lut_BUFX2
ABUFX2_insert1423 [\datapath.idinstr\_15_] \datapath.idinstr_15_hier0_bF$buf3\ d_lut_BUFX2
ABUFX2_insert1422 [\datapath.idinstr\_15_] \datapath.idinstr_15_hier0_bF$buf4\ d_lut_BUFX2
ABUFX2_insert1421 [\datapath.idinstr\_15_] \datapath.idinstr_15_hier0_bF$buf5\ d_lut_BUFX2
ABUFX2_insert1420 [\datapath.idinstr\_15_] \datapath.idinstr_15_hier0_bF$buf6\ d_lut_BUFX2
ABUFX2_insert1419 [\datapath.idinstr\_21_] \datapath.idinstr_21_hier0_bF$buf0\ d_lut_BUFX2
ABUFX2_insert1418 [\datapath.idinstr\_21_] \datapath.idinstr_21_hier0_bF$buf1\ d_lut_BUFX2
ABUFX2_insert1417 [\datapath.idinstr\_21_] \datapath.idinstr_21_hier0_bF$buf2\ d_lut_BUFX2
ABUFX2_insert1416 [\datapath.idinstr\_21_] \datapath.idinstr_21_hier0_bF$buf3\ d_lut_BUFX2
ABUFX2_insert1415 [\datapath.idinstr\_21_] \datapath.idinstr_21_hier0_bF$buf4\ d_lut_BUFX2
ABUFX2_insert1414 [\datapath.idinstr\_21_] \datapath.idinstr_21_hier0_bF$buf5\ d_lut_BUFX2
ABUFX2_insert1413 [_5472_] _5472__bF$buf0 d_lut_BUFX2
ABUFX2_insert1412 [_5472_] _5472__bF$buf1 d_lut_BUFX2
ABUFX2_insert1411 [_5472_] _5472__bF$buf2 d_lut_BUFX2
ABUFX2_insert1410 [_5472_] _5472__bF$buf3 d_lut_BUFX2
ABUFX2_insert1409 [_5472_] _5472__bF$buf4 d_lut_BUFX2
ABUFX2_insert1408 [_494_] _494__bF$buf0 d_lut_BUFX2
ABUFX2_insert1407 [_494_] _494__bF$buf1 d_lut_BUFX2
ABUFX2_insert1406 [_494_] _494__bF$buf2 d_lut_BUFX2
ABUFX2_insert1405 [_494_] _494__bF$buf3 d_lut_BUFX2
ABUFX2_insert1404 [_494_] _494__bF$buf4 d_lut_BUFX2
ABUFX2_insert1403 [_5434_] _5434__bF$buf0 d_lut_BUFX2
ABUFX2_insert1402 [_5434_] _5434__bF$buf1 d_lut_BUFX2
ABUFX2_insert1401 [_5434_] _5434__bF$buf2 d_lut_BUFX2
ABUFX2_insert1400 [_5434_] _5434__bF$buf3 d_lut_BUFX2
ABUFX2_insert1399 [_5434_] _5434__bF$buf4 d_lut_BUFX2
ABUFX2_insert1398 [_5434_] _5434__bF$buf5 d_lut_BUFX2
ABUFX2_insert1397 [_5434_] _5434__bF$buf6 d_lut_BUFX2
ABUFX2_insert1396 [_5434_] _5434__bF$buf7 d_lut_BUFX2
ABUFX2_insert1395 [_5434_] _5434__bF$buf8 d_lut_BUFX2
ABUFX2_insert1394 [_5434_] _5434__bF$buf9 d_lut_BUFX2
ABUFX2_insert1393 [_5434_] _5434__bF$buf10 d_lut_BUFX2
ABUFX2_insert1392 [_5434_] _5434__bF$buf11 d_lut_BUFX2
ABUFX2_insert1391 [_5434_] _5434__bF$buf12 d_lut_BUFX2
ABUFX2_insert1390 [_5434_] _5434__bF$buf13 d_lut_BUFX2
ABUFX2_insert1389 [_5434_] _5434__bF$buf14 d_lut_BUFX2
ABUFX2_insert1388 [_5760_] _5760__bF$buf0 d_lut_BUFX2
ABUFX2_insert1387 [_5760_] _5760__bF$buf1 d_lut_BUFX2
ABUFX2_insert1386 [_5760_] _5760__bF$buf2 d_lut_BUFX2
ABUFX2_insert1385 [_5760_] _5760__bF$buf3 d_lut_BUFX2
ABUFX2_insert1384 [_5760_] _5760__bF$buf4 d_lut_BUFX2
ABUFX2_insert1383 [_5760_] _5760__bF$buf5 d_lut_BUFX2
ABUFX2_insert1382 [_5760_] _5760__bF$buf6 d_lut_BUFX2
ABUFX2_insert1381 [_5760_] _5760__bF$buf7 d_lut_BUFX2
ABUFX2_insert1380 [_5760_] _5760__bF$buf8 d_lut_BUFX2
ABUFX2_insert1379 [_609_] _609__bF$buf0 d_lut_BUFX2
ABUFX2_insert1378 [_609_] _609__bF$buf1 d_lut_BUFX2
ABUFX2_insert1377 [_609_] _609__bF$buf2 d_lut_BUFX2
ABUFX2_insert1376 [_609_] _609__bF$buf3 d_lut_BUFX2
ABUFX2_insert1375 [_609_] _609__bF$buf4 d_lut_BUFX2
ABUFX2_insert1374 [_9076_] _9076__bF$buf0 d_lut_BUFX2
ABUFX2_insert1373 [_9076_] _9076__bF$buf1 d_lut_BUFX2
ABUFX2_insert1372 [_9076_] _9076__bF$buf2 d_lut_BUFX2
ABUFX2_insert1371 [_9076_] _9076__bF$buf3 d_lut_BUFX2
ABUFX2_insert1370 [_9076_] _9076__bF$buf4 d_lut_BUFX2
ABUFX2_insert1369 [_9076_] _9076__bF$buf5 d_lut_BUFX2
ABUFX2_insert1368 [_9076_] _9076__bF$buf6 d_lut_BUFX2
ABUFX2_insert1367 [_9076_] _9076__bF$buf7 d_lut_BUFX2
ABUFX2_insert1366 [_9076_] _9076__bF$buf8 d_lut_BUFX2
ABUFX2_insert1365 [_497_] _497__bF$buf0 d_lut_BUFX2
ABUFX2_insert1364 [_497_] _497__bF$buf1 d_lut_BUFX2
ABUFX2_insert1363 [_497_] _497__bF$buf2 d_lut_BUFX2
ABUFX2_insert1362 [_497_] _497__bF$buf3 d_lut_BUFX2
ABUFX2_insert1361 [_497_] _497__bF$buf4 d_lut_BUFX2
ABUFX2_insert1360 [_9041_] _9041__bF$buf0 d_lut_BUFX2
ABUFX2_insert1359 [_9041_] _9041__bF$buf1 d_lut_BUFX2
ABUFX2_insert1358 [_9041_] _9041__bF$buf2 d_lut_BUFX2
ABUFX2_insert1357 [_9041_] _9041__bF$buf3 d_lut_BUFX2
ABUFX2_insert1356 [_9041_] _9041__bF$buf4 d_lut_BUFX2
ABUFX2_insert1355 [_9041_] _9041__bF$buf5 d_lut_BUFX2
ABUFX2_insert1354 [_9041_] _9041__bF$buf6 d_lut_BUFX2
ABUFX2_insert1353 [_9041_] _9041__bF$buf7 d_lut_BUFX2
ABUFX2_insert1352 [_5440_] _5440__bF$buf0 d_lut_BUFX2
ABUFX2_insert1351 [_5440_] _5440__bF$buf1 d_lut_BUFX2
ABUFX2_insert1350 [_5440_] _5440__bF$buf2 d_lut_BUFX2
ABUFX2_insert1349 [_5440_] _5440__bF$buf3 d_lut_BUFX2
ABUFX2_insert1348 [_5440_] _5440__bF$buf4 d_lut_BUFX2
ABUFX2_insert1347 [_5478_] _5478__bF$buf0 d_lut_BUFX2
ABUFX2_insert1346 [_5478_] _5478__bF$buf1 d_lut_BUFX2
ABUFX2_insert1345 [_5478_] _5478__bF$buf2 d_lut_BUFX2
ABUFX2_insert1344 [_5478_] _5478__bF$buf3 d_lut_BUFX2
ABUFX2_insert1343 [_5478_] _5478__bF$buf4 d_lut_BUFX2
ABUFX2_insert1342 [_597_] _597__bF$buf0 d_lut_BUFX2
ABUFX2_insert1341 [_597_] _597__bF$buf1 d_lut_BUFX2
ABUFX2_insert1340 [_597_] _597__bF$buf2 d_lut_BUFX2
ABUFX2_insert1339 [_597_] _597__bF$buf3 d_lut_BUFX2
ABUFX2_insert1338 [_597_] _597__bF$buf4 d_lut_BUFX2
ABUFX2_insert1337 [_979_] _979__bF$buf0 d_lut_BUFX2
ABUFX2_insert1336 [_979_] _979__bF$buf1 d_lut_BUFX2
ABUFX2_insert1335 [_979_] _979__bF$buf2 d_lut_BUFX2
ABUFX2_insert1334 [_979_] _979__bF$buf3 d_lut_BUFX2
ABUFX2_insert1333 [_979_] _979__bF$buf4 d_lut_BUFX2
ABUFX2_insert1332 [_5960_] _5960__bF$buf0 d_lut_BUFX2
ABUFX2_insert1331 [_5960_] _5960__bF$buf1 d_lut_BUFX2
ABUFX2_insert1330 [_5960_] _5960__bF$buf2 d_lut_BUFX2
ABUFX2_insert1329 [_5960_] _5960__bF$buf3 d_lut_BUFX2
ABUFX2_insert1328 [_5960_] _5960__bF$buf4 d_lut_BUFX2
ABUFX2_insert1327 [_982_] _982__bF$buf0 d_lut_BUFX2
ABUFX2_insert1326 [_982_] _982__bF$buf1 d_lut_BUFX2
ABUFX2_insert1325 [_982_] _982__bF$buf2 d_lut_BUFX2
ABUFX2_insert1324 [_982_] _982__bF$buf3 d_lut_BUFX2
ABUFX2_insert1323 [_982_] _982__bF$buf4 d_lut_BUFX2
ABUFX2_insert1322 [_6040_] _6040__bF$buf0 d_lut_BUFX2
ABUFX2_insert1321 [_6040_] _6040__bF$buf1 d_lut_BUFX2
ABUFX2_insert1320 [_6040_] _6040__bF$buf2 d_lut_BUFX2
ABUFX2_insert1319 [_6040_] _6040__bF$buf3 d_lut_BUFX2
ABUFX2_insert1318 [_6040_] _6040__bF$buf4 d_lut_BUFX2
ABUFX2_insert1317 [_5484_] _5484__bF$buf0 d_lut_BUFX2
ABUFX2_insert1316 [_5484_] _5484__bF$buf1 d_lut_BUFX2
ABUFX2_insert1315 [_5484_] _5484__bF$buf2 d_lut_BUFX2
ABUFX2_insert1314 [_5484_] _5484__bF$buf3 d_lut_BUFX2
ABUFX2_insert1313 [_5484_] _5484__bF$buf4 d_lut_BUFX2
ABUFX2_insert1312 [_5446_] _5446__bF$buf0 d_lut_BUFX2
ABUFX2_insert1311 [_5446_] _5446__bF$buf1 d_lut_BUFX2
ABUFX2_insert1310 [_5446_] _5446__bF$buf2 d_lut_BUFX2
ABUFX2_insert1309 [_5446_] _5446__bF$buf3 d_lut_BUFX2
ABUFX2_insert1308 [_5446_] _5446__bF$buf4 d_lut_BUFX2
ABUFX2_insert1307 [\datapath.regcsrtrap\] \datapath.regcsrtrap_bF$buf0\ d_lut_BUFX2
ABUFX2_insert1306 [\datapath.regcsrtrap\] \datapath.regcsrtrap_bF$buf1\ d_lut_BUFX2
ABUFX2_insert1305 [\datapath.regcsrtrap\] \datapath.regcsrtrap_bF$buf2\ d_lut_BUFX2
ABUFX2_insert1304 [\datapath.regcsrtrap\] \datapath.regcsrtrap_bF$buf3\ d_lut_BUFX2
ABUFX2_insert1303 [\datapath.regcsrtrap\] \datapath.regcsrtrap_bF$buf4\ d_lut_BUFX2
ABUFX2_insert1302 [\datapath.regcsrtrap\] \datapath.regcsrtrap_bF$buf5\ d_lut_BUFX2
ABUFX2_insert1301 [\datapath.regcsrtrap\] \datapath.regcsrtrap_bF$buf6\ d_lut_BUFX2
ABUFX2_insert1300 [\datapath.regcsrtrap\] \datapath.regcsrtrap_bF$buf7\ d_lut_BUFX2
ABUFX2_insert1299 [_3800_] _3800__bF$buf0 d_lut_BUFX2
ABUFX2_insert1298 [_3800_] _3800__bF$buf1 d_lut_BUFX2
ABUFX2_insert1297 [_3800_] _3800__bF$buf2 d_lut_BUFX2
ABUFX2_insert1296 [_3800_] _3800__bF$buf3 d_lut_BUFX2
ABUFX2_insert1295 [_3800_] _3800__bF$buf4 d_lut_BUFX2
ABUFX2_insert1294 [_3800_] _3800__bF$buf5 d_lut_BUFX2
ABUFX2_insert1293 [_3800_] _3800__bF$buf6 d_lut_BUFX2
ABUFX2_insert1292 [_3800_] _3800__bF$buf7 d_lut_BUFX2
ABUFX2_insert1291 [_5505_] _5505__bF$buf0 d_lut_BUFX2
ABUFX2_insert1290 [_5505_] _5505__bF$buf1 d_lut_BUFX2
ABUFX2_insert1289 [_5505_] _5505__bF$buf2 d_lut_BUFX2
ABUFX2_insert1288 [_5505_] _5505__bF$buf3 d_lut_BUFX2
ABUFX2_insert1287 [_5505_] _5505__bF$buf4 d_lut_BUFX2
ABUFX2_insert1286 [_5505_] _5505__bF$buf5 d_lut_BUFX2
ABUFX2_insert1285 [_5505_] _5505__bF$buf6 d_lut_BUFX2
ABUFX2_insert1284 [_5505_] _5505__bF$buf7 d_lut_BUFX2
ABUFX2_insert1283 [_3685_] _3685__bF$buf0 d_lut_BUFX2
ABUFX2_insert1282 [_3685_] _3685__bF$buf1 d_lut_BUFX2
ABUFX2_insert1281 [_3685_] _3685__bF$buf2 d_lut_BUFX2
ABUFX2_insert1280 [_3685_] _3685__bF$buf3 d_lut_BUFX2
ABUFX2_insert1279 [_3685_] _3685__bF$buf4 d_lut_BUFX2
ABUFX2_insert1278 [_2480_] _2480__bF$buf0 d_lut_BUFX2
ABUFX2_insert1277 [_2480_] _2480__bF$buf1 d_lut_BUFX2
ABUFX2_insert1276 [_2480_] _2480__bF$buf2 d_lut_BUFX2
ABUFX2_insert1275 [_2480_] _2480__bF$buf3 d_lut_BUFX2
ABUFX2_insert1274 [_2480_] _2480__bF$buf4 d_lut_BUFX2
ABUFX2_insert1273 [_2480_] _2480__bF$buf5 d_lut_BUFX2
ABUFX2_insert1272 [_6140_] _6140__bF$buf0 d_lut_BUFX2
ABUFX2_insert1271 [_6140_] _6140__bF$buf1 d_lut_BUFX2
ABUFX2_insert1270 [_6140_] _6140__bF$buf2 d_lut_BUFX2
ABUFX2_insert1269 [_6140_] _6140__bF$buf3 d_lut_BUFX2
ABUFX2_insert1268 [_6140_] _6140__bF$buf4 d_lut_BUFX2
ABUFX2_insert1267 [\datapath.idinstr_16_hier0_bF$buf5\] \datapath.idinstr_16_bF$buf0\ d_lut_BUFX2
ABUFX2_insert1266 [\datapath.idinstr_16_hier0_bF$buf4\] \datapath.idinstr_16_bF$buf1\ d_lut_BUFX2
ABUFX2_insert1265 [\datapath.idinstr_16_hier0_bF$buf3\] \datapath.idinstr_16_bF$buf2\ d_lut_BUFX2
ABUFX2_insert1264 [\datapath.idinstr_16_hier0_bF$buf2\] \datapath.idinstr_16_bF$buf3\ d_lut_BUFX2
ABUFX2_insert1263 [\datapath.idinstr_16_hier0_bF$buf1\] \datapath.idinstr_16_bF$buf4\ d_lut_BUFX2
ABUFX2_insert1262 [\datapath.idinstr_16_hier0_bF$buf0\] \datapath.idinstr_16_bF$buf5\ d_lut_BUFX2
ABUFX2_insert1261 [\datapath.idinstr_16_hier0_bF$buf5\] \datapath.idinstr_16_bF$buf6\ d_lut_BUFX2
ABUFX2_insert1260 [\datapath.idinstr_16_hier0_bF$buf4\] \datapath.idinstr_16_bF$buf7\ d_lut_BUFX2
ABUFX2_insert1259 [\datapath.idinstr_16_hier0_bF$buf3\] \datapath.idinstr_16_bF$buf8\ d_lut_BUFX2
ABUFX2_insert1258 [\datapath.idinstr_16_hier0_bF$buf2\] \datapath.idinstr_16_bF$buf9\ d_lut_BUFX2
ABUFX2_insert1257 [\datapath.idinstr_16_hier0_bF$buf1\] \datapath.idinstr_16_bF$buf10\ d_lut_BUFX2
ABUFX2_insert1256 [\datapath.idinstr_16_hier0_bF$buf0\] \datapath.idinstr_16_bF$buf11\ d_lut_BUFX2
ABUFX2_insert1255 [\datapath.idinstr_16_hier0_bF$buf5\] \datapath.idinstr_16_bF$buf12\ d_lut_BUFX2
ABUFX2_insert1254 [\datapath.idinstr_16_hier0_bF$buf4\] \datapath.idinstr_16_bF$buf13\ d_lut_BUFX2
ABUFX2_insert1253 [\datapath.idinstr_16_hier0_bF$buf3\] \datapath.idinstr_16_bF$buf14\ d_lut_BUFX2
ABUFX2_insert1252 [\datapath.idinstr_16_hier0_bF$buf2\] \datapath.idinstr_16_bF$buf15\ d_lut_BUFX2
ABUFX2_insert1251 [\datapath.idinstr_16_hier0_bF$buf1\] \datapath.idinstr_16_bF$buf16\ d_lut_BUFX2
ABUFX2_insert1250 [\datapath.idinstr_16_hier0_bF$buf0\] \datapath.idinstr_16_bF$buf17\ d_lut_BUFX2
ABUFX2_insert1249 [\datapath.idinstr_16_hier0_bF$buf5\] \datapath.idinstr_16_bF$buf18\ d_lut_BUFX2
ABUFX2_insert1248 [\datapath.idinstr_16_hier0_bF$buf4\] \datapath.idinstr_16_bF$buf19\ d_lut_BUFX2
ABUFX2_insert1247 [\datapath.idinstr_16_hier0_bF$buf3\] \datapath.idinstr_16_bF$buf20\ d_lut_BUFX2
ABUFX2_insert1246 [\datapath.idinstr_16_hier0_bF$buf2\] \datapath.idinstr_16_bF$buf21\ d_lut_BUFX2
ABUFX2_insert1245 [\datapath.idinstr_16_hier0_bF$buf1\] \datapath.idinstr_16_bF$buf22\ d_lut_BUFX2
ABUFX2_insert1244 [\datapath.idinstr_16_hier0_bF$buf0\] \datapath.idinstr_16_bF$buf23\ d_lut_BUFX2
ABUFX2_insert1243 [\datapath.idinstr_16_hier0_bF$buf5\] \datapath.idinstr_16_bF$buf24\ d_lut_BUFX2
ABUFX2_insert1242 [\datapath.idinstr_16_hier0_bF$buf4\] \datapath.idinstr_16_bF$buf25\ d_lut_BUFX2
ABUFX2_insert1241 [\datapath.idinstr_16_hier0_bF$buf3\] \datapath.idinstr_16_bF$buf26\ d_lut_BUFX2
ABUFX2_insert1240 [\datapath.idinstr_16_hier0_bF$buf2\] \datapath.idinstr_16_bF$buf27\ d_lut_BUFX2
ABUFX2_insert1239 [\datapath.idinstr_16_hier0_bF$buf1\] \datapath.idinstr_16_bF$buf28\ d_lut_BUFX2
ABUFX2_insert1238 [\datapath.idinstr_16_hier0_bF$buf0\] \datapath.idinstr_16_bF$buf29\ d_lut_BUFX2
ABUFX2_insert1237 [\datapath.idinstr_16_hier0_bF$buf5\] \datapath.idinstr_16_bF$buf30\ d_lut_BUFX2
ABUFX2_insert1236 [\datapath.idinstr_16_hier0_bF$buf4\] \datapath.idinstr_16_bF$buf31\ d_lut_BUFX2
ABUFX2_insert1235 [\datapath.idinstr_16_hier0_bF$buf3\] \datapath.idinstr_16_bF$buf32\ d_lut_BUFX2
ABUFX2_insert1234 [\datapath.idinstr_16_hier0_bF$buf2\] \datapath.idinstr_16_bF$buf33\ d_lut_BUFX2
ABUFX2_insert1233 [\datapath.idinstr_16_hier0_bF$buf1\] \datapath.idinstr_16_bF$buf34\ d_lut_BUFX2
ABUFX2_insert1232 [\datapath.idinstr_16_hier0_bF$buf0\] \datapath.idinstr_16_bF$buf35\ d_lut_BUFX2
ABUFX2_insert1231 [\datapath.idinstr_16_hier0_bF$buf5\] \datapath.idinstr_16_bF$buf36\ d_lut_BUFX2
ABUFX2_insert1230 [\datapath.idinstr_16_hier0_bF$buf4\] \datapath.idinstr_16_bF$buf37\ d_lut_BUFX2
ABUFX2_insert1229 [\datapath.idinstr_16_hier0_bF$buf3\] \datapath.idinstr_16_bF$buf38\ d_lut_BUFX2
ABUFX2_insert1228 [\datapath.idinstr_16_hier0_bF$buf2\] \datapath.idinstr_16_bF$buf39\ d_lut_BUFX2
ABUFX2_insert1227 [\datapath.idinstr_16_hier0_bF$buf1\] \datapath.idinstr_16_bF$buf40\ d_lut_BUFX2
ABUFX2_insert1226 [\datapath.idinstr_16_hier0_bF$buf0\] \datapath.idinstr_16_bF$buf41\ d_lut_BUFX2
ABUFX2_insert1225 [\datapath.idinstr_16_hier0_bF$buf5\] \datapath.idinstr_16_bF$buf42\ d_lut_BUFX2
ABUFX2_insert1224 [\datapath.idinstr_16_hier0_bF$buf4\] \datapath.idinstr_16_bF$buf43\ d_lut_BUFX2
ABUFX2_insert1223 [\datapath.idinstr_16_hier0_bF$buf3\] \datapath.idinstr_16_bF$buf44\ d_lut_BUFX2
ABUFX2_insert1222 [\datapath.idinstr_16_hier0_bF$buf2\] \datapath.idinstr_16_bF$buf45\ d_lut_BUFX2
ABUFX2_insert1221 [_9109_] _9109__bF$buf0 d_lut_BUFX2
ABUFX2_insert1220 [_9109_] _9109__bF$buf1 d_lut_BUFX2
ABUFX2_insert1219 [_9109_] _9109__bF$buf2 d_lut_BUFX2
ABUFX2_insert1218 [_9109_] _9109__bF$buf3 d_lut_BUFX2
ABUFX2_insert1217 [_9109_] _9109__bF$buf4 d_lut_BUFX2
ABUFX2_insert1216 [_9244_] _9244__bF$buf0 d_lut_BUFX2
ABUFX2_insert1215 [_9244_] _9244__bF$buf1 d_lut_BUFX2
ABUFX2_insert1214 [_9244_] _9244__bF$buf2 d_lut_BUFX2
ABUFX2_insert1213 [_9244_] _9244__bF$buf3 d_lut_BUFX2
ABUFX2_insert1212 [_9244_] _9244__bF$buf4 d_lut_BUFX2
ABUFX2_insert1211 [_5546_] _5546__bF$buf0 d_lut_BUFX2
ABUFX2_insert1210 [_5546_] _5546__bF$buf1 d_lut_BUFX2
ABUFX2_insert1209 [_5546_] _5546__bF$buf2 d_lut_BUFX2
ABUFX2_insert1208 [_5546_] _5546__bF$buf3 d_lut_BUFX2
ABUFX2_insert1207 [_5546_] _5546__bF$buf4 d_lut_BUFX2
ABUFX2_insert1206 [_5546_] _5546__bF$buf5 d_lut_BUFX2
ABUFX2_insert1205 [_5546_] _5546__bF$buf6 d_lut_BUFX2
ABUFX2_insert1204 [_5546_] _5546__bF$buf7 d_lut_BUFX2
ABUFX2_insert1203 [_5546_] _5546__bF$buf8 d_lut_BUFX2
ABUFX2_insert1202 [_5546_] _5546__bF$buf9 d_lut_BUFX2
ABUFX2_insert1201 [_5546_] _5546__bF$buf10 d_lut_BUFX2
ABUFX2_insert1200 [_5546_] _5546__bF$buf11 d_lut_BUFX2
ABUFX2_insert1199 [_5546_] _5546__bF$buf12 d_lut_BUFX2
ABUFX2_insert1198 [_5546_] _5546__bF$buf13 d_lut_BUFX2
ABUFX2_insert1197 [_5546_] _5546__bF$buf14 d_lut_BUFX2
ABUFX2_insert1196 [_5546_] _5546__bF$buf15 d_lut_BUFX2
ABUFX2_insert1195 [_5490_] _5490__bF$buf0 d_lut_BUFX2
ABUFX2_insert1194 [_5490_] _5490__bF$buf1 d_lut_BUFX2
ABUFX2_insert1193 [_5490_] _5490__bF$buf2 d_lut_BUFX2
ABUFX2_insert1192 [_5490_] _5490__bF$buf3 d_lut_BUFX2
ABUFX2_insert1191 [_5490_] _5490__bF$buf4 d_lut_BUFX2
ABUFX2_insert1190 [_5681_] _5681__bF$buf0 d_lut_BUFX2
ABUFX2_insert1189 [_5681_] _5681__bF$buf1 d_lut_BUFX2
ABUFX2_insert1188 [_5681_] _5681__bF$buf2 d_lut_BUFX2
ABUFX2_insert1187 [_5681_] _5681__bF$buf3 d_lut_BUFX2
ABUFX2_insert1186 [_5681_] _5681__bF$buf4 d_lut_BUFX2
ABUFX2_insert1185 [_5452_] _5452__bF$buf0 d_lut_BUFX2
ABUFX2_insert1184 [_5452_] _5452__bF$buf1 d_lut_BUFX2
ABUFX2_insert1183 [_5452_] _5452__bF$buf2 d_lut_BUFX2
ABUFX2_insert1182 [_5452_] _5452__bF$buf3 d_lut_BUFX2
ABUFX2_insert1181 [_5452_] _5452__bF$buf4 d_lut_BUFX2
ABUFX2_insert1180 [_0__0_] _0__0_bF$buf0 d_lut_BUFX2
ABUFX2_insert1179 [_0__0_] _0__0_bF$buf1 d_lut_BUFX2
ABUFX2_insert1178 [_0__0_] _0__0_bF$buf2 d_lut_BUFX2
ABUFX2_insert1177 [_0__0_] _0__0_bF$buf3 d_lut_BUFX2
ABUFX2_insert1176 [_0__0_] _0__0_bF$buf4 d_lut_BUFX2
ABUFX2_insert1175 [_6143_] _6143__bF$buf0 d_lut_BUFX2
ABUFX2_insert1174 [_6143_] _6143__bF$buf1 d_lut_BUFX2
ABUFX2_insert1173 [_6143_] _6143__bF$buf2 d_lut_BUFX2
ABUFX2_insert1172 [_6143_] _6143__bF$buf3 d_lut_BUFX2
ABUFX2_insert1171 [_6143_] _6143__bF$buf4 d_lut_BUFX2
ABUFX2_insert1170 [_2865_] _2865__bF$buf0 d_lut_BUFX2
ABUFX2_insert1169 [_2865_] _2865__bF$buf1 d_lut_BUFX2
ABUFX2_insert1168 [_2865_] _2865__bF$buf2 d_lut_BUFX2
ABUFX2_insert1167 [_2865_] _2865__bF$buf3 d_lut_BUFX2
ABUFX2_insert1166 [_1240_] _1240__bF$buf0 d_lut_BUFX2
ABUFX2_insert1165 [_1240_] _1240__bF$buf1 d_lut_BUFX2
ABUFX2_insert1164 [_1240_] _1240__bF$buf2 d_lut_BUFX2
ABUFX2_insert1163 [_1240_] _1240__bF$buf3 d_lut_BUFX2
ABUFX2_insert1162 [_1240_] _1240__bF$buf4 d_lut_BUFX2
ABUFX2_insert1161 [\datapath.idinstr\_19_] \datapath.idinstr_19_bF$buf0\ d_lut_BUFX2
ABUFX2_insert1160 [\datapath.idinstr\_19_] \datapath.idinstr_19_bF$buf1\ d_lut_BUFX2
ABUFX2_insert1159 [\datapath.idinstr\_19_] \datapath.idinstr_19_bF$buf2\ d_lut_BUFX2
ABUFX2_insert1158 [\datapath.idinstr\_19_] \datapath.idinstr_19_bF$buf3\ d_lut_BUFX2
ABUFX2_insert1157 [\datapath.idinstr\_19_] \datapath.idinstr_19_bF$buf4\ d_lut_BUFX2
ABUFX2_insert1156 [\datapath.idinstr\_19_] \datapath.idinstr_19_bF$buf5\ d_lut_BUFX2
ABUFX2_insert1155 [\datapath.idinstr_22_hier0_bF$buf5\] \datapath.idinstr_22_bF$buf0\ d_lut_BUFX2
ABUFX2_insert1154 [\datapath.idinstr_22_hier0_bF$buf4\] \datapath.idinstr_22_bF$buf1\ d_lut_BUFX2
ABUFX2_insert1153 [\datapath.idinstr_22_hier0_bF$buf3\] \datapath.idinstr_22_bF$buf2\ d_lut_BUFX2
ABUFX2_insert1152 [\datapath.idinstr_22_hier0_bF$buf2\] \datapath.idinstr_22_bF$buf3\ d_lut_BUFX2
ABUFX2_insert1151 [\datapath.idinstr_22_hier0_bF$buf1\] \datapath.idinstr_22_bF$buf4\ d_lut_BUFX2
ABUFX2_insert1150 [\datapath.idinstr_22_hier0_bF$buf0\] \datapath.idinstr_22_bF$buf5\ d_lut_BUFX2
ABUFX2_insert1149 [\datapath.idinstr_22_hier0_bF$buf5\] \datapath.idinstr_22_bF$buf6\ d_lut_BUFX2
ABUFX2_insert1148 [\datapath.idinstr_22_hier0_bF$buf4\] \datapath.idinstr_22_bF$buf7\ d_lut_BUFX2
ABUFX2_insert1147 [\datapath.idinstr_22_hier0_bF$buf3\] \datapath.idinstr_22_bF$buf8\ d_lut_BUFX2
ABUFX2_insert1146 [\datapath.idinstr_22_hier0_bF$buf2\] \datapath.idinstr_22_bF$buf9\ d_lut_BUFX2
ABUFX2_insert1145 [\datapath.idinstr_22_hier0_bF$buf1\] \datapath.idinstr_22_bF$buf10\ d_lut_BUFX2
ABUFX2_insert1144 [\datapath.idinstr_22_hier0_bF$buf0\] \datapath.idinstr_22_bF$buf11\ d_lut_BUFX2
ABUFX2_insert1143 [\datapath.idinstr_22_hier0_bF$buf5\] \datapath.idinstr_22_bF$buf12\ d_lut_BUFX2
ABUFX2_insert1142 [\datapath.idinstr_22_hier0_bF$buf4\] \datapath.idinstr_22_bF$buf13\ d_lut_BUFX2
ABUFX2_insert1141 [\datapath.idinstr_22_hier0_bF$buf3\] \datapath.idinstr_22_bF$buf14\ d_lut_BUFX2
ABUFX2_insert1140 [\datapath.idinstr_22_hier0_bF$buf2\] \datapath.idinstr_22_bF$buf15\ d_lut_BUFX2
ABUFX2_insert1139 [\datapath.idinstr_22_hier0_bF$buf1\] \datapath.idinstr_22_bF$buf16\ d_lut_BUFX2
ABUFX2_insert1138 [\datapath.idinstr_22_hier0_bF$buf0\] \datapath.idinstr_22_bF$buf17\ d_lut_BUFX2
ABUFX2_insert1137 [\datapath.idinstr_22_hier0_bF$buf5\] \datapath.idinstr_22_bF$buf18\ d_lut_BUFX2
ABUFX2_insert1136 [\datapath.idinstr_22_hier0_bF$buf4\] \datapath.idinstr_22_bF$buf19\ d_lut_BUFX2
ABUFX2_insert1135 [\datapath.idinstr_22_hier0_bF$buf3\] \datapath.idinstr_22_bF$buf20\ d_lut_BUFX2
ABUFX2_insert1134 [\datapath.idinstr_22_hier0_bF$buf2\] \datapath.idinstr_22_bF$buf21\ d_lut_BUFX2
ABUFX2_insert1133 [\datapath.idinstr_22_hier0_bF$buf1\] \datapath.idinstr_22_bF$buf22\ d_lut_BUFX2
ABUFX2_insert1132 [\datapath.idinstr_22_hier0_bF$buf0\] \datapath.idinstr_22_bF$buf23\ d_lut_BUFX2
ABUFX2_insert1131 [\datapath.idinstr_22_hier0_bF$buf5\] \datapath.idinstr_22_bF$buf24\ d_lut_BUFX2
ABUFX2_insert1130 [\datapath.idinstr_22_hier0_bF$buf4\] \datapath.idinstr_22_bF$buf25\ d_lut_BUFX2
ABUFX2_insert1129 [\datapath.idinstr_22_hier0_bF$buf3\] \datapath.idinstr_22_bF$buf26\ d_lut_BUFX2
ABUFX2_insert1128 [\datapath.idinstr_22_hier0_bF$buf2\] \datapath.idinstr_22_bF$buf27\ d_lut_BUFX2
ABUFX2_insert1127 [\datapath.idinstr_22_hier0_bF$buf1\] \datapath.idinstr_22_bF$buf28\ d_lut_BUFX2
ABUFX2_insert1126 [\datapath.idinstr_22_hier0_bF$buf0\] \datapath.idinstr_22_bF$buf29\ d_lut_BUFX2
ABUFX2_insert1125 [\datapath.idinstr_22_hier0_bF$buf5\] \datapath.idinstr_22_bF$buf30\ d_lut_BUFX2
ABUFX2_insert1124 [\datapath.idinstr_22_hier0_bF$buf4\] \datapath.idinstr_22_bF$buf31\ d_lut_BUFX2
ABUFX2_insert1123 [\datapath.idinstr_22_hier0_bF$buf3\] \datapath.idinstr_22_bF$buf32\ d_lut_BUFX2
ABUFX2_insert1122 [\datapath.idinstr_22_hier0_bF$buf2\] \datapath.idinstr_22_bF$buf33\ d_lut_BUFX2
ABUFX2_insert1121 [\datapath.idinstr_22_hier0_bF$buf1\] \datapath.idinstr_22_bF$buf34\ d_lut_BUFX2
ABUFX2_insert1120 [\datapath.idinstr_22_hier0_bF$buf0\] \datapath.idinstr_22_bF$buf35\ d_lut_BUFX2
ABUFX2_insert1119 [\datapath.idinstr_22_hier0_bF$buf5\] \datapath.idinstr_22_bF$buf36\ d_lut_BUFX2
ABUFX2_insert1118 [\datapath.idinstr_22_hier0_bF$buf4\] \datapath.idinstr_22_bF$buf37\ d_lut_BUFX2
ABUFX2_insert1117 [\datapath.idinstr_22_hier0_bF$buf3\] \datapath.idinstr_22_bF$buf38\ d_lut_BUFX2
ABUFX2_insert1116 [\datapath.idinstr_22_hier0_bF$buf2\] \datapath.idinstr_22_bF$buf39\ d_lut_BUFX2
ABUFX2_insert1115 [\datapath.idinstr_22_hier0_bF$buf1\] \datapath.idinstr_22_bF$buf40\ d_lut_BUFX2
ABUFX2_insert1114 [\datapath.idinstr_22_hier0_bF$buf0\] \datapath.idinstr_22_bF$buf41\ d_lut_BUFX2
ABUFX2_insert1113 [\datapath.idinstr_22_hier0_bF$buf5\] \datapath.idinstr_22_bF$buf42\ d_lut_BUFX2
ABUFX2_insert1112 [\datapath.idinstr_22_hier0_bF$buf4\] \datapath.idinstr_22_bF$buf43\ d_lut_BUFX2
ABUFX2_insert1111 [\datapath.pcstall\] \datapath.pcstall_bF$buf0\ d_lut_BUFX2
ABUFX2_insert1110 [\datapath.pcstall\] \datapath.pcstall_bF$buf1\ d_lut_BUFX2
ABUFX2_insert1109 [\datapath.pcstall\] \datapath.pcstall_bF$buf2\ d_lut_BUFX2
ABUFX2_insert1108 [\datapath.pcstall\] \datapath.pcstall_bF$buf3\ d_lut_BUFX2
ABUFX2_insert1107 [\datapath.pcstall\] \datapath.pcstall_bF$buf4\ d_lut_BUFX2
ABUFX2_insert1106 [\datapath.pcstall\] \datapath.pcstall_bF$buf5\ d_lut_BUFX2
ABUFX2_insert1105 [\datapath.pcstall\] \datapath.pcstall_bF$buf6\ d_lut_BUFX2
ABUFX2_insert1104 [\datapath.pcstall\] \datapath.pcstall_bF$buf7\ d_lut_BUFX2
ABUFX2_insert1103 [_2680_] _2680__bF$buf0 d_lut_BUFX2
ABUFX2_insert1102 [_2680_] _2680__bF$buf1 d_lut_BUFX2
ABUFX2_insert1101 [_2680_] _2680__bF$buf2 d_lut_BUFX2
ABUFX2_insert1100 [_2680_] _2680__bF$buf3 d_lut_BUFX2
ABUFX2_insert1099 [\datapath.regmret\] \datapath.regmret_bF$buf0\ d_lut_BUFX2
ABUFX2_insert1098 [\datapath.regmret\] \datapath.regmret_bF$buf1\ d_lut_BUFX2
ABUFX2_insert1097 [\datapath.regmret\] \datapath.regmret_bF$buf2\ d_lut_BUFX2
ABUFX2_insert1096 [\datapath.regmret\] \datapath.regmret_bF$buf3\ d_lut_BUFX2
ABUFX2_insert1095 [\datapath.regmret\] \datapath.regmret_bF$buf4\ d_lut_BUFX2
ABUFX2_insert1094 [_5496_] _5496__bF$buf0 d_lut_BUFX2
ABUFX2_insert1093 [_5496_] _5496__bF$buf1 d_lut_BUFX2
ABUFX2_insert1092 [_5496_] _5496__bF$buf2 d_lut_BUFX2
ABUFX2_insert1091 [_5496_] _5496__bF$buf3 d_lut_BUFX2
ABUFX2_insert1090 [_5496_] _5496__bF$buf4 d_lut_BUFX2
ABUFX2_insert1089 [_5458_] _5458__bF$buf0 d_lut_BUFX2
ABUFX2_insert1088 [_5458_] _5458__bF$buf1 d_lut_BUFX2
ABUFX2_insert1087 [_5458_] _5458__bF$buf2 d_lut_BUFX2
ABUFX2_insert1086 [_5458_] _5458__bF$buf3 d_lut_BUFX2
ABUFX2_insert1085 [_5458_] _5458__bF$buf4 d_lut_BUFX2
ABUFX2_insert1084 [_2489_] _2489__bF$buf0 d_lut_BUFX2
ABUFX2_insert1083 [_2489_] _2489__bF$buf1 d_lut_BUFX2
ABUFX2_insert1082 [_2489_] _2489__bF$buf2 d_lut_BUFX2
ABUFX2_insert1081 [_2489_] _2489__bF$buf3 d_lut_BUFX2
ABUFX2_insert1080 [_2489_] _2489__bF$buf4 d_lut_BUFX2
ABUFX2_insert1079 [_2489_] _2489__bF$buf5 d_lut_BUFX2