* XSpice netlist created from SPICE and liberty sources by spi2xspice.py
*SPICE netlist created from verilog structural netlist module RISCV32I by vlog2Spice (qflow)
** Start of included library /usr/share/qflow/tech/osu035/osu035_stdcells.sp
** End of included library /usr/share/qflow/tech/osu035/osu035_stdcells.sp
.subckt RISCV32I a_vdd a_gnd a_CLK a_DMEM_ADDR_0_ a_DMEM_ADDR_1_ a_DMEM_ADDR_2_ a_DMEM_ADDR_3_ a_DMEM_ADDR_4_ a_DMEM_ADDR_5_ a_DMEM_ADDR_6_ a_DMEM_ADDR_7_ a_DMEM_ADDR_8_ a_DMEM_ADDR_9_ a_DMEM_ADDR_10_ a_DMEM_ADDR_11_ a_DMEM_ADDR_12_ a_DMEM_ADDR_13_ a_DMEM_ADDR_14_ a_DMEM_ADDR_15_ a_DMEM_ADDR_16_ a_DMEM_ADDR_17_ a_DMEM_ADDR_18_ a_DMEM_ADDR_19_ a_DMEM_ADDR_20_ a_DMEM_ADDR_21_ a_DMEM_ADDR_22_ a_DMEM_ADDR_23_ a_DMEM_ADDR_24_ a_DMEM_ADDR_25_ a_DMEM_ADDR_26_ a_DMEM_ADDR_27_ a_DMEM_ADDR_28_ a_DMEM_ADDR_29_ a_DMEM_ADDR_30_ a_DMEM_ADDR_31_ a_DMEM_DATA_L_0_ a_DMEM_DATA_L_1_ a_DMEM_DATA_L_2_ a_DMEM_DATA_L_3_ a_DMEM_DATA_L_4_ a_DMEM_DATA_L_5_ a_DMEM_DATA_L_6_ a_DMEM_DATA_L_7_ a_DMEM_DATA_L_8_ a_DMEM_DATA_L_9_ a_DMEM_DATA_L_10_ a_DMEM_DATA_L_11_ a_DMEM_DATA_L_12_ a_DMEM_DATA_L_13_ a_DMEM_DATA_L_14_ a_DMEM_DATA_L_15_ a_DMEM_DATA_L_16_ a_DMEM_DATA_L_17_ a_DMEM_DATA_L_18_ a_DMEM_DATA_L_19_ a_DMEM_DATA_L_20_ a_DMEM_DATA_L_21_ a_DMEM_DATA_L_22_ a_DMEM_DATA_L_23_ a_DMEM_DATA_L_24_ a_DMEM_DATA_L_25_ a_DMEM_DATA_L_26_ a_DMEM_DATA_L_27_ a_DMEM_DATA_L_28_ a_DMEM_DATA_L_29_ a_DMEM_DATA_L_30_ a_DMEM_DATA_L_31_ a_DMEM_DATA_S_0_ a_DMEM_DATA_S_1_ a_DMEM_DATA_S_2_ a_DMEM_DATA_S_3_ a_DMEM_DATA_S_4_ a_DMEM_DATA_S_5_ a_DMEM_DATA_S_6_ a_DMEM_DATA_S_7_ a_DMEM_DATA_S_8_ a_DMEM_DATA_S_9_ a_DMEM_DATA_S_10_ a_DMEM_DATA_S_11_ a_DMEM_DATA_S_12_ a_DMEM_DATA_S_13_ a_DMEM_DATA_S_14_ a_DMEM_DATA_S_15_ a_DMEM_DATA_S_16_ a_DMEM_DATA_S_17_ a_DMEM_DATA_S_18_ a_DMEM_DATA_S_19_ a_DMEM_DATA_S_20_ a_DMEM_DATA_S_21_ a_DMEM_DATA_S_22_ a_DMEM_DATA_S_23_ a_DMEM_DATA_S_24_ a_DMEM_DATA_S_25_ a_DMEM_DATA_S_26_ a_DMEM_DATA_S_27_ a_DMEM_DATA_S_28_ a_DMEM_DATA_S_29_ a_DMEM_DATA_S_30_ a_DMEM_DATA_S_31_ a_DMEM_WEN a_IMEM_ADDR_0_ a_IMEM_ADDR_1_ a_IMEM_ADDR_2_ a_IMEM_ADDR_3_ a_IMEM_ADDR_4_ a_IMEM_ADDR_5_ a_IMEM_ADDR_6_ a_IMEM_ADDR_7_ a_IMEM_ADDR_8_ a_IMEM_ADDR_9_ a_IMEM_ADDR_10_ a_IMEM_ADDR_11_ a_IMEM_ADDR_12_ a_IMEM_ADDR_13_ a_IMEM_ADDR_14_ a_IMEM_ADDR_15_ a_IMEM_ADDR_16_ a_IMEM_ADDR_17_ a_IMEM_ADDR_18_ a_IMEM_ADDR_19_ a_IMEM_ADDR_20_ a_IMEM_ADDR_21_ a_IMEM_ADDR_22_ a_IMEM_ADDR_23_ a_IMEM_ADDR_24_ a_IMEM_ADDR_25_ a_IMEM_ADDR_26_ a_IMEM_ADDR_27_ a_IMEM_ADDR_28_ a_IMEM_ADDR_29_ a_IMEM_ADDR_30_ a_IMEM_ADDR_31_ a_IMEM_DATA_0_ a_IMEM_DATA_1_ a_IMEM_DATA_2_ a_IMEM_DATA_3_ a_IMEM_DATA_4_ a_IMEM_DATA_5_ a_IMEM_DATA_6_ a_IMEM_DATA_7_ a_IMEM_DATA_8_ a_IMEM_DATA_9_ a_IMEM_DATA_10_ a_IMEM_DATA_11_ a_IMEM_DATA_12_ a_IMEM_DATA_13_ a_IMEM_DATA_14_ a_IMEM_DATA_15_ a_IMEM_DATA_16_ a_IMEM_DATA_17_ a_IMEM_DATA_18_ a_IMEM_DATA_19_ a_IMEM_DATA_20_ a_IMEM_DATA_21_ a_IMEM_DATA_22_ a_IMEM_DATA_23_ a_IMEM_DATA_24_ a_IMEM_DATA_25_ a_IMEM_DATA_26_ a_IMEM_DATA_27_ a_IMEM_DATA_28_ a_IMEM_DATA_29_ a_IMEM_DATA_30_ a_IMEM_DATA_31_ a_IRQ
ABUFX2_insert1424 [\datapath.idinstr\_16_] \datapath.idinstr_16_hier0_bF$buf0\ d_lut_BUFX2
ABUFX2_insert1423 [\datapath.idinstr\_16_] \datapath.idinstr_16_hier0_bF$buf1\ d_lut_BUFX2
ABUFX2_insert1422 [\datapath.idinstr\_16_] \datapath.idinstr_16_hier0_bF$buf2\ d_lut_BUFX2
ABUFX2_insert1421 [\datapath.idinstr\_16_] \datapath.idinstr_16_hier0_bF$buf3\ d_lut_BUFX2
ABUFX2_insert1420 [\datapath.idinstr\_16_] \datapath.idinstr_16_hier0_bF$buf4\ d_lut_BUFX2
ABUFX2_insert1419 [\datapath.idinstr\_16_] \datapath.idinstr_16_hier0_bF$buf5\ d_lut_BUFX2
ABUFX2_insert1418 [\datapath.idinstr\_16_] \datapath.idinstr_16_hier0_bF$buf6\ d_lut_BUFX2
ABUFX2_insert1417 [\datapath.idinstr\_22_] \datapath.idinstr_22_hier0_bF$buf0\ d_lut_BUFX2
ABUFX2_insert1416 [\datapath.idinstr\_22_] \datapath.idinstr_22_hier0_bF$buf1\ d_lut_BUFX2
ABUFX2_insert1415 [\datapath.idinstr\_22_] \datapath.idinstr_22_hier0_bF$buf2\ d_lut_BUFX2
ABUFX2_insert1414 [\datapath.idinstr\_22_] \datapath.idinstr_22_hier0_bF$buf3\ d_lut_BUFX2
ABUFX2_insert1413 [\datapath.idinstr\_22_] \datapath.idinstr_22_hier0_bF$buf4\ d_lut_BUFX2
ABUFX2_insert1412 [\datapath.idinstr\_22_] \datapath.idinstr_22_hier0_bF$buf5\ d_lut_BUFX2
ABUFX2_insert1411 [_7425_] _7425__hier0_bF$buf0 d_lut_BUFX2
ABUFX2_insert1410 [_7425_] _7425__hier0_bF$buf1 d_lut_BUFX2
ABUFX2_insert1409 [_7425_] _7425__hier0_bF$buf2 d_lut_BUFX2
ABUFX2_insert1408 [_7425_] _7425__hier0_bF$buf3 d_lut_BUFX2
ABUFX2_insert1407 [_7425_] _7425__hier0_bF$buf4 d_lut_BUFX2
ABUFX2_insert1406 [_7425_] _7425__hier0_bF$buf5 d_lut_BUFX2
ACLKBUF1_insert1405 [CLK] CLK_hier0_bF$buf0 d_lut_CLKBUF1
ACLKBUF1_insert1404 [CLK] CLK_hier0_bF$buf1 d_lut_CLKBUF1
ACLKBUF1_insert1403 [CLK] CLK_hier0_bF$buf2 d_lut_CLKBUF1
ACLKBUF1_insert1402 [CLK] CLK_hier0_bF$buf3 d_lut_CLKBUF1
ACLKBUF1_insert1401 [CLK] CLK_hier0_bF$buf4 d_lut_CLKBUF1
ACLKBUF1_insert1400 [CLK] CLK_hier0_bF$buf5 d_lut_CLKBUF1
ACLKBUF1_insert1399 [CLK] CLK_hier0_bF$buf6 d_lut_CLKBUF1
ACLKBUF1_insert1398 [CLK] CLK_hier0_bF$buf7 d_lut_CLKBUF1
ACLKBUF1_insert1397 [CLK] CLK_hier0_bF$buf8 d_lut_CLKBUF1
ACLKBUF1_insert1396 [CLK] CLK_hier0_bF$buf9 d_lut_CLKBUF1
ACLKBUF1_insert1395 [CLK] CLK_hier0_bF$buf10 d_lut_CLKBUF1
ACLKBUF1_insert1394 [CLK] CLK_hier0_bF$buf11 d_lut_CLKBUF1
ABUFX2_insert1393 [\datapath.idinstr\_20_] \datapath.idinstr_20_hier0_bF$buf0\ d_lut_BUFX2
ABUFX2_insert1392 [\datapath.idinstr\_20_] \datapath.idinstr_20_hier0_bF$buf1\ d_lut_BUFX2
ABUFX2_insert1391 [\datapath.idinstr\_20_] \datapath.idinstr_20_hier0_bF$buf2\ d_lut_BUFX2
ABUFX2_insert1390 [\datapath.idinstr\_20_] \datapath.idinstr_20_hier0_bF$buf3\ d_lut_BUFX2
ABUFX2_insert1389 [\datapath.idinstr\_20_] \datapath.idinstr_20_hier0_bF$buf4\ d_lut_BUFX2
ABUFX2_insert1388 [\datapath.idinstr\_20_] \datapath.idinstr_20_hier0_bF$buf5\ d_lut_BUFX2
ABUFX2_insert1387 [\datapath.idinstr\_20_] \datapath.idinstr_20_hier0_bF$buf6\ d_lut_BUFX2
ABUFX2_insert1386 [_5762_] _5762__hier0_bF$buf0 d_lut_BUFX2
ABUFX2_insert1385 [_5762_] _5762__hier0_bF$buf1 d_lut_BUFX2
ABUFX2_insert1384 [_5762_] _5762__hier0_bF$buf2 d_lut_BUFX2
ABUFX2_insert1383 [_5762_] _5762__hier0_bF$buf3 d_lut_BUFX2
ABUFX2_insert1382 [_5762_] _5762__hier0_bF$buf4 d_lut_BUFX2
ABUFX2_insert1381 [_5762_] _5762__hier0_bF$buf5 d_lut_BUFX2
ABUFX2_insert1380 [\datapath.idinstr\_15_] \datapath.idinstr_15_hier0_bF$buf0\ d_lut_BUFX2
ABUFX2_insert1379 [\datapath.idinstr\_15_] \datapath.idinstr_15_hier0_bF$buf1\ d_lut_BUFX2
ABUFX2_insert1378 [\datapath.idinstr\_15_] \datapath.idinstr_15_hier0_bF$buf2\ d_lut_BUFX2
ABUFX2_insert1377 [\datapath.idinstr\_15_] \datapath.idinstr_15_hier0_bF$buf3\ d_lut_BUFX2
ABUFX2_insert1376 [\datapath.idinstr\_15_] \datapath.idinstr_15_hier0_bF$buf4\ d_lut_BUFX2
ABUFX2_insert1375 [\datapath.idinstr\_15_] \datapath.idinstr_15_hier0_bF$buf5\ d_lut_BUFX2
ABUFX2_insert1374 [\datapath.idinstr\_15_] \datapath.idinstr_15_hier0_bF$buf6\ d_lut_BUFX2
ABUFX2_insert1373 [\datapath.idinstr\_21_] \datapath.idinstr_21_hier0_bF$buf0\ d_lut_BUFX2
ABUFX2_insert1372 [\datapath.idinstr\_21_] \datapath.idinstr_21_hier0_bF$buf1\ d_lut_BUFX2
ABUFX2_insert1371 [\datapath.idinstr\_21_] \datapath.idinstr_21_hier0_bF$buf2\ d_lut_BUFX2
ABUFX2_insert1370 [\datapath.idinstr\_21_] \datapath.idinstr_21_hier0_bF$buf3\ d_lut_BUFX2
ABUFX2_insert1369 [\datapath.idinstr\_21_] \datapath.idinstr_21_hier0_bF$buf4\ d_lut_BUFX2
ABUFX2_insert1368 [\datapath.idinstr\_21_] \datapath.idinstr_21_hier0_bF$buf5\ d_lut_BUFX2
ABUFX2_insert1367 [\datapath.idinstr\_21_] \datapath.idinstr_21_hier0_bF$buf6\ d_lut_BUFX2
ABUFX2_insert1366 [_2597_] _2597__bF$buf0 d_lut_BUFX2
ABUFX2_insert1365 [_2597_] _2597__bF$buf1 d_lut_BUFX2
ABUFX2_insert1364 [_2597_] _2597__bF$buf2 d_lut_BUFX2
ABUFX2_insert1363 [_2597_] _2597__bF$buf3 d_lut_BUFX2
ABUFX2_insert1362 [_2597_] _2597__bF$buf4 d_lut_BUFX2
ABUFX2_insert1361 [_2597_] _2597__bF$buf5 d_lut_BUFX2
ABUFX2_insert1360 [_5052_] _5052__bF$buf0 d_lut_BUFX2
ABUFX2_insert1359 [_5052_] _5052__bF$buf1 d_lut_BUFX2
ABUFX2_insert1358 [_5052_] _5052__bF$buf2 d_lut_BUFX2
ABUFX2_insert1357 [_5052_] _5052__bF$buf3 d_lut_BUFX2
ABUFX2_insert1356 [_5052_] _5052__bF$buf4 d_lut_BUFX2
ABUFX2_insert1355 [_4934_] _4934__bF$buf0 d_lut_BUFX2
ABUFX2_insert1354 [_4934_] _4934__bF$buf1 d_lut_BUFX2
ABUFX2_insert1353 [_4934_] _4934__bF$buf2 d_lut_BUFX2
ABUFX2_insert1352 [_4934_] _4934__bF$buf3 d_lut_BUFX2
ABUFX2_insert1351 [_4934_] _4934__bF$buf4 d_lut_BUFX2
ABUFX2_insert1350 [_4934_] _4934__bF$buf5 d_lut_BUFX2
ABUFX2_insert1349 [_4934_] _4934__bF$buf6 d_lut_BUFX2
ABUFX2_insert1348 [_4934_] _4934__bF$buf7 d_lut_BUFX2
ABUFX2_insert1347 [_4934_] _4934__bF$buf8 d_lut_BUFX2
ABUFX2_insert1346 [_4934_] _4934__bF$buf9 d_lut_BUFX2
ABUFX2_insert1345 [_5760_] _5760__bF$buf0 d_lut_BUFX2
ABUFX2_insert1344 [_5760_] _5760__bF$buf1 d_lut_BUFX2
ABUFX2_insert1343 [_5760_] _5760__bF$buf2 d_lut_BUFX2
ABUFX2_insert1342 [_5760_] _5760__bF$buf3 d_lut_BUFX2
ABUFX2_insert1341 [_5760_] _5760__bF$buf4 d_lut_BUFX2
ABUFX2_insert1340 [_5760_] _5760__bF$buf5 d_lut_BUFX2
ABUFX2_insert1339 [_5760_] _5760__bF$buf6 d_lut_BUFX2
ABUFX2_insert1338 [_5760_] _5760__bF$buf7 d_lut_BUFX2
ABUFX2_insert1337 [_5722_] _5722__bF$buf0 d_lut_BUFX2
ABUFX2_insert1336 [_5722_] _5722__bF$buf1 d_lut_BUFX2
ABUFX2_insert1335 [_5722_] _5722__bF$buf2 d_lut_BUFX2
ABUFX2_insert1334 [_5722_] _5722__bF$buf3 d_lut_BUFX2
ABUFX2_insert1333 [_5722_] _5722__bF$buf4 d_lut_BUFX2
ABUFX2_insert1332 [_1833_] _1833__bF$buf0 d_lut_BUFX2
ABUFX2_insert1331 [_1833_] _1833__bF$buf1 d_lut_BUFX2
ABUFX2_insert1330 [_1833_] _1833__bF$buf2 d_lut_BUFX2
ABUFX2_insert1329 [_1833_] _1833__bF$buf3 d_lut_BUFX2
ABUFX2_insert1328 [_1833_] _1833__bF$buf4 d_lut_BUFX2
ABUFX2_insert1327 [_1833_] _1833__bF$buf5 d_lut_BUFX2
ABUFX2_insert1326 [_1833_] _1833__bF$buf6 d_lut_BUFX2
ABUFX2_insert1325 [_1833_] _1833__bF$buf7 d_lut_BUFX2
ABUFX2_insert1324 [_5017_] _5017__bF$buf0 d_lut_BUFX2
ABUFX2_insert1323 [_5017_] _5017__bF$buf1 d_lut_BUFX2
ABUFX2_insert1322 [_5017_] _5017__bF$buf2 d_lut_BUFX2
ABUFX2_insert1321 [_5017_] _5017__bF$buf3 d_lut_BUFX2
ABUFX2_insert1320 [_5017_] _5017__bF$buf4 d_lut_BUFX2
ABUFX2_insert1319 [_5017_] _5017__bF$buf5 d_lut_BUFX2
ABUFX2_insert1318 [_5017_] _5017__bF$buf6 d_lut_BUFX2
ABUFX2_insert1317 [_5017_] _5017__bF$buf7 d_lut_BUFX2
ABUFX2_insert1316 [_4843_] _4843__bF$buf0 d_lut_BUFX2
ABUFX2_insert1315 [_4843_] _4843__bF$buf1 d_lut_BUFX2
ABUFX2_insert1314 [_4843_] _4843__bF$buf2 d_lut_BUFX2
ABUFX2_insert1313 [_4843_] _4843__bF$buf3 d_lut_BUFX2
ABUFX2_insert1312 [_4843_] _4843__bF$buf4 d_lut_BUFX2
ABUFX2_insert1311 [_5152_] _5152__bF$buf0 d_lut_BUFX2
ABUFX2_insert1310 [_5152_] _5152__bF$buf1 d_lut_BUFX2
ABUFX2_insert1309 [_5152_] _5152__bF$buf2 d_lut_BUFX2
ABUFX2_insert1308 [_5152_] _5152__bF$buf3 d_lut_BUFX2
ABUFX2_insert1307 [_5152_] _5152__bF$buf4 d_lut_BUFX2
ABUFX2_insert1306 [_5152_] _5152__bF$buf5 d_lut_BUFX2
ABUFX2_insert1305 [_5152_] _5152__bF$buf6 d_lut_BUFX2
ABUFX2_insert1304 [_5152_] _5152__bF$buf7 d_lut_BUFX2
ABUFX2_insert1303 [_4805_] _4805__bF$buf0 d_lut_BUFX2
ABUFX2_insert1302 [_4805_] _4805__bF$buf1 d_lut_BUFX2
ABUFX2_insert1301 [_4805_] _4805__bF$buf2 d_lut_BUFX2
ABUFX2_insert1300 [_4805_] _4805__bF$buf3 d_lut_BUFX2
ABUFX2_insert1299 [_4805_] _4805__bF$buf4 d_lut_BUFX2
ABUFX2_insert1298 [_5308_] _5308__bF$buf0 d_lut_BUFX2
ABUFX2_insert1297 [_5308_] _5308__bF$buf1 d_lut_BUFX2
ABUFX2_insert1296 [_5308_] _5308__bF$buf2 d_lut_BUFX2
ABUFX2_insert1295 [_5308_] _5308__bF$buf3 d_lut_BUFX2
ABUFX2_insert1294 [_5308_] _5308__bF$buf4 d_lut_BUFX2
ABUFX2_insert1293 [_5308_] _5308__bF$buf5 d_lut_BUFX2
ABUFX2_insert1292 [_5308_] _5308__bF$buf6 d_lut_BUFX2
ABUFX2_insert1291 [_5308_] _5308__bF$buf7 d_lut_BUFX2
ABUFX2_insert1290 [_1839_] _1839__bF$buf0 d_lut_BUFX2
ABUFX2_insert1289 [_1839_] _1839__bF$buf1 d_lut_BUFX2
ABUFX2_insert1288 [_1839_] _1839__bF$buf2 d_lut_BUFX2
ABUFX2_insert1287 [_1839_] _1839__bF$buf3 d_lut_BUFX2
ABUFX2_insert1286 [_1839_] _1839__bF$buf4 d_lut_BUFX2
ABUFX2_insert1285 [_1839_] _1839__bF$buf5 d_lut_BUFX2
ABUFX2_insert1284 [_1839_] _1839__bF$buf6 d_lut_BUFX2
ABUFX2_insert1283 [_4811_] _4811__bF$buf0 d_lut_BUFX2
ABUFX2_insert1282 [_4811_] _4811__bF$buf1 d_lut_BUFX2
ABUFX2_insert1281 [_4811_] _4811__bF$buf2 d_lut_BUFX2
ABUFX2_insert1280 [_4811_] _4811__bF$buf3 d_lut_BUFX2
ABUFX2_insert1279 [_4811_] _4811__bF$buf4 d_lut_BUFX2
ABUFX2_insert1278 [_2016_] _2016__bF$buf0 d_lut_BUFX2
ABUFX2_insert1277 [_2016_] _2016__bF$buf1 d_lut_BUFX2
ABUFX2_insert1276 [_2016_] _2016__bF$buf2 d_lut_BUFX2
ABUFX2_insert1275 [_2016_] _2016__bF$buf3 d_lut_BUFX2
ABUFX2_insert1274 [_4849_] _4849__bF$buf0 d_lut_BUFX2
ABUFX2_insert1273 [_4849_] _4849__bF$buf1 d_lut_BUFX2
ABUFX2_insert1272 [_4849_] _4849__bF$buf2 d_lut_BUFX2
ABUFX2_insert1271 [_4849_] _4849__bF$buf3 d_lut_BUFX2
ABUFX2_insert1270 [_4849_] _4849__bF$buf4 d_lut_BUFX2
ABUFX2_insert1269 [_5408_] _5408__bF$buf0 d_lut_BUFX2
ABUFX2_insert1268 [_5408_] _5408__bF$buf1 d_lut_BUFX2
ABUFX2_insert1267 [_5408_] _5408__bF$buf2 d_lut_BUFX2
ABUFX2_insert1266 [_5408_] _5408__bF$buf3 d_lut_BUFX2
ABUFX2_insert1265 [_5408_] _5408__bF$buf4 d_lut_BUFX2
ABUFX2_insert1264 [_5408_] _5408__bF$buf5 d_lut_BUFX2
ABUFX2_insert1263 [_5408_] _5408__bF$buf6 d_lut_BUFX2
ABUFX2_insert1262 [_5408_] _5408__bF$buf7 d_lut_BUFX2
ABUFX2_insert1261 [_5220_] _5220__bF$buf0 d_lut_BUFX2
ABUFX2_insert1260 [_5220_] _5220__bF$buf1 d_lut_BUFX2
ABUFX2_insert1259 [_5220_] _5220__bF$buf2 d_lut_BUFX2
ABUFX2_insert1258 [_5220_] _5220__bF$buf3 d_lut_BUFX2
ABUFX2_insert1257 [_5220_] _5220__bF$buf4 d_lut_BUFX2
ABUFX2_insert1256 [_5220_] _5220__bF$buf5 d_lut_BUFX2
ABUFX2_insert1255 [_5220_] _5220__bF$buf6 d_lut_BUFX2
ABUFX2_insert1254 [_5220_] _5220__bF$buf7 d_lut_BUFX2
ABUFX2_insert1253 [_2251_] _2251__bF$buf0 d_lut_BUFX2
ABUFX2_insert1252 [_2251_] _2251__bF$buf1 d_lut_BUFX2
ABUFX2_insert1251 [_2251_] _2251__bF$buf2 d_lut_BUFX2
ABUFX2_insert1250 [_2251_] _2251__bF$buf3 d_lut_BUFX2
ABUFX2_insert1249 [\datapath.idinstr_16_hier0_bF$buf6\] \datapath.idinstr_16_bF$buf0\ d_lut_BUFX2
ABUFX2_insert1248 [\datapath.idinstr_16_hier0_bF$buf5\] \datapath.idinstr_16_bF$buf1\ d_lut_BUFX2
ABUFX2_insert1247 [\datapath.idinstr_16_hier0_bF$buf4\] \datapath.idinstr_16_bF$buf2\ d_lut_BUFX2
ABUFX2_insert1246 [\datapath.idinstr_16_hier0_bF$buf3\] \datapath.idinstr_16_bF$buf3\ d_lut_BUFX2
ABUFX2_insert1245 [\datapath.idinstr_16_hier0_bF$buf2\] \datapath.idinstr_16_bF$buf4\ d_lut_BUFX2
ABUFX2_insert1244 [\datapath.idinstr_16_hier0_bF$buf1\] \datapath.idinstr_16_bF$buf5\ d_lut_BUFX2
ABUFX2_insert1243 [\datapath.idinstr_16_hier0_bF$buf0\] \datapath.idinstr_16_bF$buf6\ d_lut_BUFX2
ABUFX2_insert1242 [\datapath.idinstr_16_hier0_bF$buf6\] \datapath.idinstr_16_bF$buf7\ d_lut_BUFX2
ABUFX2_insert1241 [\datapath.idinstr_16_hier0_bF$buf5\] \datapath.idinstr_16_bF$buf8\ d_lut_BUFX2
ABUFX2_insert1240 [\datapath.idinstr_16_hier0_bF$buf4\] \datapath.idinstr_16_bF$buf9\ d_lut_BUFX2
ABUFX2_insert1239 [\datapath.idinstr_16_hier0_bF$buf3\] \datapath.idinstr_16_bF$buf10\ d_lut_BUFX2
ABUFX2_insert1238 [\datapath.idinstr_16_hier0_bF$buf2\] \datapath.idinstr_16_bF$buf11\ d_lut_BUFX2
ABUFX2_insert1237 [\datapath.idinstr_16_hier0_bF$buf1\] \datapath.idinstr_16_bF$buf12\ d_lut_BUFX2
ABUFX2_insert1236 [\datapath.idinstr_16_hier0_bF$buf0\] \datapath.idinstr_16_bF$buf13\ d_lut_BUFX2
ABUFX2_insert1235 [\datapath.idinstr_16_hier0_bF$buf6\] \datapath.idinstr_16_bF$buf14\ d_lut_BUFX2
ABUFX2_insert1234 [\datapath.idinstr_16_hier0_bF$buf5\] \datapath.idinstr_16_bF$buf15\ d_lut_BUFX2
ABUFX2_insert1233 [\datapath.idinstr_16_hier0_bF$buf4\] \datapath.idinstr_16_bF$buf16\ d_lut_BUFX2
ABUFX2_insert1232 [\datapath.idinstr_16_hier0_bF$buf3\] \datapath.idinstr_16_bF$buf17\ d_lut_BUFX2
ABUFX2_insert1231 [\datapath.idinstr_16_hier0_bF$buf2\] \datapath.idinstr_16_bF$buf18\ d_lut_BUFX2
ABUFX2_insert1230 [\datapath.idinstr_16_hier0_bF$buf1\] \datapath.idinstr_16_bF$buf19\ d_lut_BUFX2
ABUFX2_insert1229 [\datapath.idinstr_16_hier0_bF$buf0\] \datapath.idinstr_16_bF$buf20\ d_lut_BUFX2
ABUFX2_insert1228 [\datapath.idinstr_16_hier0_bF$buf6\] \datapath.idinstr_16_bF$buf21\ d_lut_BUFX2
ABUFX2_insert1227 [\datapath.idinstr_16_hier0_bF$buf5\] \datapath.idinstr_16_bF$buf22\ d_lut_BUFX2
ABUFX2_insert1226 [\datapath.idinstr_16_hier0_bF$buf4\] \datapath.idinstr_16_bF$buf23\ d_lut_BUFX2
ABUFX2_insert1225 [\datapath.idinstr_16_hier0_bF$buf3\] \datapath.idinstr_16_bF$buf24\ d_lut_BUFX2
ABUFX2_insert1224 [\datapath.idinstr_16_hier0_bF$buf2\] \datapath.idinstr_16_bF$buf25\ d_lut_BUFX2
ABUFX2_insert1223 [\datapath.idinstr_16_hier0_bF$buf1\] \datapath.idinstr_16_bF$buf26\ d_lut_BUFX2
ABUFX2_insert1222 [\datapath.idinstr_16_hier0_bF$buf0\] \datapath.idinstr_16_bF$buf27\ d_lut_BUFX2
ABUFX2_insert1221 [\datapath.idinstr_16_hier0_bF$buf6\] \datapath.idinstr_16_bF$buf28\ d_lut_BUFX2
ABUFX2_insert1220 [\datapath.idinstr_16_hier0_bF$buf5\] \datapath.idinstr_16_bF$buf29\ d_lut_BUFX2
ABUFX2_insert1219 [\datapath.idinstr_16_hier0_bF$buf4\] \datapath.idinstr_16_bF$buf30\ d_lut_BUFX2
ABUFX2_insert1218 [\datapath.idinstr_16_hier0_bF$buf3\] \datapath.idinstr_16_bF$buf31\ d_lut_BUFX2
ABUFX2_insert1217 [\datapath.idinstr_16_hier0_bF$buf2\] \datapath.idinstr_16_bF$buf32\ d_lut_BUFX2
ABUFX2_insert1216 [\datapath.idinstr_16_hier0_bF$buf1\] \datapath.idinstr_16_bF$buf33\ d_lut_BUFX2
ABUFX2_insert1215 [\datapath.idinstr_16_hier0_bF$buf0\] \datapath.idinstr_16_bF$buf34\ d_lut_BUFX2
ABUFX2_insert1214 [\datapath.idinstr_16_hier0_bF$buf6\] \datapath.idinstr_16_bF$buf35\ d_lut_BUFX2
ABUFX2_insert1213 [\datapath.idinstr_16_hier0_bF$buf5\] \datapath.idinstr_16_bF$buf36\ d_lut_BUFX2
ABUFX2_insert1212 [\datapath.idinstr_16_hier0_bF$buf4\] \datapath.idinstr_16_bF$buf37\ d_lut_BUFX2
ABUFX2_insert1211 [\datapath.idinstr_16_hier0_bF$buf3\] \datapath.idinstr_16_bF$buf38\ d_lut_BUFX2
ABUFX2_insert1210 [\datapath.idinstr_16_hier0_bF$buf2\] \datapath.idinstr_16_bF$buf39\ d_lut_BUFX2
ABUFX2_insert1209 [\datapath.idinstr_16_hier0_bF$buf1\] \datapath.idinstr_16_bF$buf40\ d_lut_BUFX2
ABUFX2_insert1208 [\datapath.idinstr_16_hier0_bF$buf0\] \datapath.idinstr_16_bF$buf41\ d_lut_BUFX2
ABUFX2_insert1207 [\datapath.idinstr_16_hier0_bF$buf6\] \datapath.idinstr_16_bF$buf42\ d_lut_BUFX2
ABUFX2_insert1206 [\datapath.idinstr_16_hier0_bF$buf5\] \datapath.idinstr_16_bF$buf43\ d_lut_BUFX2
ABUFX2_insert1205 [\datapath.idinstr_16_hier0_bF$buf4\] \datapath.idinstr_16_bF$buf44\ d_lut_BUFX2
ABUFX2_insert1204 [\datapath.idinstr_16_hier0_bF$buf3\] \datapath.idinstr_16_bF$buf45\ d_lut_BUFX2
ABUFX2_insert1203 [\datapath.idinstr_16_hier0_bF$buf2\] \datapath.idinstr_16_bF$buf46\ d_lut_BUFX2
ABUFX2_insert1202 [\datapath.idinstr_16_hier0_bF$buf1\] \datapath.idinstr_16_bF$buf47\ d_lut_BUFX2
ABUFX2_insert1201 [\datapath.idinstr_16_hier0_bF$buf0\] \datapath.idinstr_16_bF$buf48\ d_lut_BUFX2
ABUFX2_insert1200 [\datapath.idinstr_16_hier0_bF$buf6\] \datapath.idinstr_16_bF$buf49\ d_lut_BUFX2
ABUFX2_insert1199 [\datapath.idinstr_16_hier0_bF$buf5\] \datapath.idinstr_16_bF$buf50\ d_lut_BUFX2
ABUFX2_insert1198 [\datapath.idinstr_16_hier0_bF$buf4\] \datapath.idinstr_16_bF$buf51\ d_lut_BUFX2
ABUFX2_insert1197 [_9091_] _9091__bF$buf0 d_lut_BUFX2
ABUFX2_insert1196 [_9091_] _9091__bF$buf1 d_lut_BUFX2
ABUFX2_insert1195 [_9091_] _9091__bF$buf2 d_lut_BUFX2
ABUFX2_insert1194 [_9091_] _9091__bF$buf3 d_lut_BUFX2
ABUFX2_insert1193 [_9091_] _9091__bF$buf4 d_lut_BUFX2
ABUFX2_insert1192 [_4855_] _4855__bF$buf0 d_lut_BUFX2
ABUFX2_insert1191 [_4855_] _4855__bF$buf1 d_lut_BUFX2
ABUFX2_insert1190 [_4855_] _4855__bF$buf2 d_lut_BUFX2
ABUFX2_insert1189 [_4855_] _4855__bF$buf3 d_lut_BUFX2
ABUFX2_insert1188 [_4855_] _4855__bF$buf4 d_lut_BUFX2
ABUFX2_insert1187 [_4817_] _4817__bF$buf0 d_lut_BUFX2
ABUFX2_insert1186 [_4817_] _4817__bF$buf1 d_lut_BUFX2
ABUFX2_insert1185 [_4817_] _4817__bF$buf2 d_lut_BUFX2
ABUFX2_insert1184 [_4817_] _4817__bF$buf3 d_lut_BUFX2
ABUFX2_insert1183 [_4817_] _4817__bF$buf4 d_lut_BUFX2
ABUFX2_insert1182 [_0__0_] _0__0_bF$buf0 d_lut_BUFX2
ABUFX2_insert1181 [_0__0_] _0__0_bF$buf1 d_lut_BUFX2
ABUFX2_insert1180 [_0__0_] _0__0_bF$buf2 d_lut_BUFX2
ABUFX2_insert1179 [_0__0_] _0__0_bF$buf3 d_lut_BUFX2
ABUFX2_insert1178 [_0__0_] _0__0_bF$buf4 d_lut_BUFX2
ABUFX2_insert1177 [_4799_] _4799__bF$buf0 d_lut_BUFX2
ABUFX2_insert1176 [_4799_] _4799__bF$buf1 d_lut_BUFX2
ABUFX2_insert1175 [_4799_] _4799__bF$buf2 d_lut_BUFX2
ABUFX2_insert1174 [_4799_] _4799__bF$buf3 d_lut_BUFX2
ABUFX2_insert1173 [_4799_] _4799__bF$buf4 d_lut_BUFX2
ABUFX2_insert1172 [_4799_] _4799__bF$buf5 d_lut_BUFX2
ABUFX2_insert1171 [_4799_] _4799__bF$buf6 d_lut_BUFX2
ABUFX2_insert1170 [_4799_] _4799__bF$buf7 d_lut_BUFX2
ABUFX2_insert1169 [_3136_] _3136__bF$buf0 d_lut_BUFX2
ABUFX2_insert1168 [_3136_] _3136__bF$buf1 d_lut_BUFX2
ABUFX2_insert1167 [_3136_] _3136__bF$buf2 d_lut_BUFX2
ABUFX2_insert1166 [_3136_] _3136__bF$buf3 d_lut_BUFX2
ABUFX2_insert1165 [_3136_] _3136__bF$buf4 d_lut_BUFX2
ABUFX2_insert1164 [_3136_] _3136__bF$buf5 d_lut_BUFX2
ABUFX2_insert1163 [_3136_] _3136__bF$buf6 d_lut_BUFX2
ABUFX2_insert1162 [_3136_] _3136__bF$buf7 d_lut_BUFX2
ABUFX2_insert1161 [\datapath.idinstr\_19_] \datapath.idinstr_19_bF$buf0\ d_lut_BUFX2
ABUFX2_insert1160 [\datapath.idinstr\_19_] \datapath.idinstr_19_bF$buf1\ d_lut_BUFX2
ABUFX2_insert1159 [\datapath.idinstr\_19_] \datapath.idinstr_19_bF$buf2\ d_lut_BUFX2
ABUFX2_insert1158 [\datapath.idinstr\_19_] \datapath.idinstr_19_bF$buf3\ d_lut_BUFX2
ABUFX2_insert1157 [\datapath.idinstr\_19_] \datapath.idinstr_19_bF$buf4\ d_lut_BUFX2
ABUFX2_insert1156 [\datapath.idinstr\_19_] \datapath.idinstr_19_bF$buf5\ d_lut_BUFX2
ABUFX2_insert1155 [_4896_] _4896__bF$buf0 d_lut_BUFX2
ABUFX2_insert1154 [_4896_] _4896__bF$buf1 d_lut_BUFX2
ABUFX2_insert1153 [_4896_] _4896__bF$buf2 d_lut_BUFX2
ABUFX2_insert1152 [_4896_] _4896__bF$buf3 d_lut_BUFX2
ABUFX2_insert1151 [_4896_] _4896__bF$buf4 d_lut_BUFX2
ABUFX2_insert1150 [_4896_] _4896__bF$buf5 d_lut_BUFX2
ABUFX2_insert1149 [_2924_] _2924__bF$buf0 d_lut_BUFX2
ABUFX2_insert1148 [_2924_] _2924__bF$buf1 d_lut_BUFX2
ABUFX2_insert1147 [_2924_] _2924__bF$buf2 d_lut_BUFX2
ABUFX2_insert1146 [_2924_] _2924__bF$buf3 d_lut_BUFX2
ABUFX2_insert1145 [_2924_] _2924__bF$buf4 d_lut_BUFX2
ABUFX2_insert1144 [_2924_] _2924__bF$buf5 d_lut_BUFX2
ABUFX2_insert1143 [_2924_] _2924__bF$buf6 d_lut_BUFX2
ABUFX2_insert1142 [_189_] _189__bF$buf0 d_lut_BUFX2
ABUFX2_insert1141 [_189_] _189__bF$buf1 d_lut_BUFX2
ABUFX2_insert1140 [_189_] _189__bF$buf2 d_lut_BUFX2
ABUFX2_insert1139 [_189_] _189__bF$buf3 d_lut_BUFX2
ABUFX2_insert1138 [_189_] _189__bF$buf4 d_lut_BUFX2
ABUFX2_insert1137 [\datapath.idinstr_22_hier0_bF$buf5\] \datapath.idinstr_22_bF$buf0\ d_lut_BUFX2
ABUFX2_insert1136 [\datapath.idinstr_22_hier0_bF$buf4\] \datapath.idinstr_22_bF$buf1\ d_lut_BUFX2
ABUFX2_insert1135 [\datapath.idinstr_22_hier0_bF$buf3\] \datapath.idinstr_22_bF$buf2\ d_lut_BUFX2
ABUFX2_insert1134 [\datapath.idinstr_22_hier0_bF$buf2\] \datapath.idinstr_22_bF$buf3\ d_lut_BUFX2
ABUFX2_insert1133 [\datapath.idinstr_22_hier0_bF$buf1\] \datapath.idinstr_22_bF$buf4\ d_lut_BUFX2
ABUFX2_insert1132 [\datapath.idinstr_22_hier0_bF$buf0\] \datapath.idinstr_22_bF$buf5\ d_lut_BUFX2
ABUFX2_insert1131 [\datapath.idinstr_22_hier0_bF$buf5\] \datapath.idinstr_22_bF$buf6\ d_lut_BUFX2
ABUFX2_insert1130 [\datapath.idinstr_22_hier0_bF$buf4\] \datapath.idinstr_22_bF$buf7\ d_lut_BUFX2
ABUFX2_insert1129 [\datapath.idinstr_22_hier0_bF$buf3\] \datapath.idinstr_22_bF$buf8\ d_lut_BUFX2
ABUFX2_insert1128 [\datapath.idinstr_22_hier0_bF$buf2\] \datapath.idinstr_22_bF$buf9\ d_lut_BUFX2
ABUFX2_insert1127 [\datapath.idinstr_22_hier0_bF$buf1\] \datapath.idinstr_22_bF$buf10\ d_lut_BUFX2
ABUFX2_insert1126 [\datapath.idinstr_22_hier0_bF$buf0\] \datapath.idinstr_22_bF$buf11\ d_lut_BUFX2
ABUFX2_insert1125 [\datapath.idinstr_22_hier0_bF$buf5\] \datapath.idinstr_22_bF$buf12\ d_lut_BUFX2
ABUFX2_insert1124 [\datapath.idinstr_22_hier0_bF$buf4\] \datapath.idinstr_22_bF$buf13\ d_lut_BUFX2
ABUFX2_insert1123 [\datapath.idinstr_22_hier0_bF$buf3\] \datapath.idinstr_22_bF$buf14\ d_lut_BUFX2
ABUFX2_insert1122 [\datapath.idinstr_22_hier0_bF$buf2\] \datapath.idinstr_22_bF$buf15\ d_lut_BUFX2
ABUFX2_insert1121 [\datapath.idinstr_22_hier0_bF$buf1\] \datapath.idinstr_22_bF$buf16\ d_lut_BUFX2
ABUFX2_insert1120 [\datapath.idinstr_22_hier0_bF$buf0\] \datapath.idinstr_22_bF$buf17\ d_lut_BUFX2
ABUFX2_insert1119 [\datapath.idinstr_22_hier0_bF$buf5\] \datapath.idinstr_22_bF$buf18\ d_lut_BUFX2
ABUFX2_insert1118 [\datapath.idinstr_22_hier0_bF$buf4\] \datapath.idinstr_22_bF$buf19\ d_lut_BUFX2
ABUFX2_insert1117 [\datapath.idinstr_22_hier0_bF$buf3\] \datapath.idinstr_22_bF$buf20\ d_lut_BUFX2
ABUFX2_insert1116 [\datapath.idinstr_22_hier0_bF$buf2\] \datapath.idinstr_22_bF$buf21\ d_lut_BUFX2
ABUFX2_insert1115 [\datapath.idinstr_22_hier0_bF$buf1\] \datapath.idinstr_22_bF$buf22\ d_lut_BUFX2
ABUFX2_insert1114 [\datapath.idinstr_22_hier0_bF$buf0\] \datapath.idinstr_22_bF$buf23\ d_lut_BUFX2
ABUFX2_insert1113 [\datapath.idinstr_22_hier0_bF$buf5\] \datapath.idinstr_22_bF$buf24\ d_lut_BUFX2
ABUFX2_insert1112 [\datapath.idinstr_22_hier0_bF$buf4\] \datapath.idinstr_22_bF$buf25\ d_lut_BUFX2
ABUFX2_insert1111 [\datapath.idinstr_22_hier0_bF$buf3\] \datapath.idinstr_22_bF$buf26\ d_lut_BUFX2
ABUFX2_insert1110 [\datapath.idinstr_22_hier0_bF$buf2\] \datapath.idinstr_22_bF$buf27\ d_lut_BUFX2
ABUFX2_insert1109 [\datapath.idinstr_22_hier0_bF$buf1\] \datapath.idinstr_22_bF$buf28\ d_lut_BUFX2
ABUFX2_insert1108 [\datapath.idinstr_22_hier0_bF$buf0\] \datapath.idinstr_22_bF$buf29\ d_lut_BUFX2
ABUFX2_insert1107 [\datapath.idinstr_22_hier0_bF$buf5\] \datapath.idinstr_22_bF$buf30\ d_lut_BUFX2
ABUFX2_insert1106 [\datapath.idinstr_22_hier0_bF$buf4\] \datapath.idinstr_22_bF$buf31\ d_lut_BUFX2
ABUFX2_insert1105 [\datapath.idinstr_22_hier0_bF$buf3\] \datapath.idinstr_22_bF$buf32\ d_lut_BUFX2
ABUFX2_insert1104 [\datapath.idinstr_22_hier0_bF$buf2\] \datapath.idinstr_22_bF$buf33\ d_lut_BUFX2
ABUFX2_insert1103 [\datapath.idinstr_22_hier0_bF$buf1\] \datapath.idinstr_22_bF$buf34\ d_lut_BUFX2
ABUFX2_insert1102 [\datapath.idinstr_22_hier0_bF$buf0\] \datapath.idinstr_22_bF$buf35\ d_lut_BUFX2
ABUFX2_insert1101 [\datapath.idinstr_22_hier0_bF$buf5\] \datapath.idinstr_22_bF$buf36\ d_lut_BUFX2
ABUFX2_insert1100 [\datapath.idinstr_22_hier0_bF$buf4\] \datapath.idinstr_22_bF$buf37\ d_lut_BUFX2
ABUFX2_insert1099 [\datapath.idinstr_22_hier0_bF$buf3\] \datapath.idinstr_22_bF$buf38\ d_lut_BUFX2
ABUFX2_insert1098 [\datapath.idinstr_22_hier0_bF$buf2\] \datapath.idinstr_22_bF$buf39\ d_lut_BUFX2
ABUFX2_insert1097 [\datapath.idinstr_22_hier0_bF$buf1\] \datapath.idinstr_22_bF$buf40\ d_lut_BUFX2
ABUFX2_insert1096 [\datapath.idinstr_22_hier0_bF$buf0\] \datapath.idinstr_22_bF$buf41\ d_lut_BUFX2
ABUFX2_insert1095 [_5264_] _5264__bF$buf0 d_lut_BUFX2
ABUFX2_insert1094 [_5264_] _5264__bF$buf1 d_lut_BUFX2
ABUFX2_insert1093 [_5264_] _5264__bF$buf2 d_lut_BUFX2
ABUFX2_insert1092 [_5264_] _5264__bF$buf3 d_lut_BUFX2
ABUFX2_insert1091 [_5264_] _5264__bF$buf4 d_lut_BUFX2
ABUFX2_insert1090 [_5264_] _5264__bF$buf5 d_lut_BUFX2
ABUFX2_insert1089 [_5264_] _5264__bF$buf6 d_lut_BUFX2
ABUFX2_insert1088 [_5264_] _5264__bF$buf7 d_lut_BUFX2
ABUFX2_insert1087 [_286_] _286__bF$buf0 d_lut_BUFX2
ABUFX2_insert1086 [_286_] _286__bF$buf1 d_lut_BUFX2
ABUFX2_insert1085 [_286_] _286__bF$buf2 d_lut_BUFX2
ABUFX2_insert1084 [_286_] _286__bF$buf3 d_lut_BUFX2
ABUFX2_insert1083 [_286_] _286__bF$buf4 d_lut_BUFX2
ABUFX2_insert1082 [_4861_] _4861__bF$buf0 d_lut_BUFX2
ABUFX2_insert1081 [_4861_] _4861__bF$buf1 d_lut_BUFX2
ABUFX2_insert1080 [_4861_] _4861__bF$buf2 d_lut_BUFX2
ABUFX2_insert1079 [_4861_] _4861__bF$buf3 d_lut_BUFX2
ABUFX2_insert1078 [_4861_] _4861__bF$buf4 d_lut_BUFX2
ABUFX2_insert1077 [_4823_] _4823__bF$buf0 d_lut_BUFX2
ABUFX2_insert1076 [_4823_] _4823__bF$buf1 d_lut_BUFX2
ABUFX2_insert1075 [_4823_] _4823__bF$buf2 d_lut_BUFX2
ABUFX2_insert1074 [_4823_] _4823__bF$buf3 d_lut_BUFX2
ABUFX2_insert1073 [_4823_] _4823__bF$buf4 d_lut_BUFX2
ABUFX2_insert1072 [_4899_] _4899__bF$buf0 d_lut_BUFX2
ABUFX2_insert1071 [_4899_] _4899__bF$buf1 d_lut_BUFX2
ABUFX2_insert1070 [_4899_] _4899__bF$buf2 d_lut_BUFX2
ABUFX2_insert1069 [_4899_] _4899__bF$buf3 d_lut_BUFX2
ABUFX2_insert1068 [_4899_] _4899__bF$buf4 d_lut_BUFX2
ABUFX2_insert1067 [_4899_] _4899__bF$buf5 d_lut_BUFX2
ABUFX2_insert1066 [_4899_] _4899__bF$buf6 d_lut_BUFX2
ABUFX2_insert1065 [_4899_] _4899__bF$buf7 d_lut_BUFX2
ABUFX2_insert1064 [_4899_] _4899__bF$buf8 d_lut_BUFX2
ABUFX2_insert1063 [_4899_] _4899__bF$buf9 d_lut_BUFX2
ABUFX2_insert1062 [_4899_] _4899__bF$buf10 d_lut_BUFX2
ABUFX2_insert1061 [_4899_] _4899__bF$buf11 d_lut_BUFX2
ABUFX2_insert1060 [_4899_] _4899__bF$buf12 d_lut_BUFX2
ABUFX2_insert1059 [_4899_] _4899__bF$buf13 d_lut_BUFX2
ABUFX2_insert1058 [_7451_] _7451__bF$buf0 d_lut_BUFX2
ABUFX2_insert1057 [_7451_] _7451__bF$buf1 d_lut_BUFX2
ABUFX2_insert1056 [_7451_] _7451__bF$buf2 d_lut_BUFX2
ABUFX2_insert1055 [_7451_] _7451__bF$buf3 d_lut_BUFX2
ABUFX2_insert1054 [_7451_] _7451__bF$buf4 d_lut_BUFX2
ABUFX2_insert1053 [_5687_] _5687__bF$buf0 d_lut_BUFX2
ABUFX2_insert1052 [_5687_] _5687__bF$buf1 d_lut_BUFX2
ABUFX2_insert1051 [_5687_] _5687__bF$buf2 d_lut_BUFX2
ABUFX2_insert1050 [_5687_] _5687__bF$buf3 d_lut_BUFX2
ABUFX2_insert1049 [_5687_] _5687__bF$buf4 d_lut_BUFX2
ABUFX2_insert1048 [_5687_] _5687__bF$buf5 d_lut_BUFX2
ABUFX2_insert1047 [_5687_] _5687__bF$buf6 d_lut_BUFX2
ABUFX2_insert1046 [_5687_] _5687__bF$buf7 d_lut_BUFX2
ABUFX2_insert1045 [_5687_] _5687__bF$buf8 d_lut_BUFX2
ABUFX2_insert1044 [_386_] _386__bF$buf0 d_lut_BUFX2
ABUFX2_insert1043 [_386_] _386__bF$buf1 d_lut_BUFX2
ABUFX2_insert1042 [_386_] _386__bF$buf2 d_lut_BUFX2
ABUFX2_insert1041 [_386_] _386__bF$buf3 d_lut_BUFX2
ABUFX2_insert1040 [_386_] _386__bF$buf4 d_lut_BUFX2
ABUFX2_insert1039 [_4829_] _4829__bF$buf0 d_lut_BUFX2
ABUFX2_insert1038 [_4829_] _4829__bF$buf1 d_lut_BUFX2
ABUFX2_insert1037 [_4829_] _4829__bF$buf2 d_lut_BUFX2
ABUFX2_insert1036 [_4829_] _4829__bF$buf3 d_lut_BUFX2
ABUFX2_insert1035 [_4829_] _4829__bF$buf4 d_lut_BUFX2
ABUFX2_insert1034 [\datapath.alu.b\_0_] \datapath.alu.b_0_bF$buf0\ d_lut_BUFX2
ABUFX2_insert1033 [\datapath.alu.b\_0_] \datapath.alu.b_0_bF$buf1\ d_lut_BUFX2