* XSpice netlist created from SPICE and liberty sources by spi2xspice.py
*SPICE netlist created from verilog structural netlist module csr by vlog2Spice (qflow)
** Start of included library /usr/share/qflow/tech/osu018/osu018_stdcells.sp
** End of included library /usr/share/qflow/tech/osu018/osu018_stdcells.sp
.subckt csr a_vdd a_gnd a_CSR_IRQ a_CSR_PCaddr_0_ a_CSR_PCaddr_1_ a_CSR_PCaddr_2_ a_CSR_PCaddr_3_ a_CSR_PCaddr_4_ a_CSR_PCaddr_5_ a_CSR_PCaddr_6_ a_CSR_PCaddr_7_ a_CSR_PCaddr_8_ a_CSR_PCaddr_9_ a_CSR_PCaddr_10_ a_CSR_PCaddr_11_ a_CSR_PCaddr_12_ a_CSR_PCaddr_13_ a_CSR_PCaddr_14_ a_CSR_PCaddr_15_ a_CSR_PCaddr_16_ a_CSR_PCaddr_17_ a_CSR_PCaddr_18_ a_CSR_PCaddr_19_ a_CSR_PCaddr_20_ a_CSR_PCaddr_21_ a_CSR_PCaddr_22_ a_CSR_PCaddr_23_ a_CSR_PCaddr_24_ a_CSR_PCaddr_25_ a_CSR_PCaddr_26_ a_CSR_PCaddr_27_ a_CSR_PCaddr_28_ a_CSR_PCaddr_29_ a_CSR_PCaddr_30_ a_CSR_PCaddr_31_ a_CSR_Ret a_CSR_Wdata_0_ a_CSR_Wdata_1_ a_CSR_Wdata_2_ a_CSR_Wdata_3_ a_CSR_Wdata_4_ a_CSR_Wdata_5_ a_CSR_Wdata_6_ a_CSR_Wdata_7_ a_CSR_Wdata_8_ a_CSR_Wdata_9_ a_CSR_Wdata_10_ a_CSR_Wdata_11_ a_CSR_Wdata_12_ a_CSR_Wdata_13_ a_CSR_Wdata_14_ a_CSR_Wdata_15_ a_CSR_Wdata_16_ a_CSR_Wdata_17_ a_CSR_Wdata_18_ a_CSR_Wdata_19_ a_CSR_Wdata_20_ a_CSR_Wdata_21_ a_CSR_Wdata_22_ a_CSR_Wdata_23_ a_CSR_Wdata_24_ a_CSR_Wdata_25_ a_CSR_Wdata_26_ a_CSR_Wdata_27_ a_CSR_Wdata_28_ a_CSR_Wdata_29_ a_CSR_Wdata_30_ a_CSR_Wdata_31_ a_CSR_Wen a_CSR_Wen_traps a_CSR_addr_0_ a_CSR_addr_1_ a_CSR_addr_2_ a_CSR_addr_3_ a_CSR_addr_4_ a_CSR_addr_5_ a_CSR_addr_6_ a_CSR_addr_7_ a_CSR_addr_8_ a_CSR_addr_9_ a_CSR_addr_10_ a_CSR_addr_11_ a_CSR_data_0_ a_CSR_data_1_ a_CSR_data_2_ a_CSR_data_3_ a_CSR_data_4_ a_CSR_data_5_ a_CSR_data_6_ a_CSR_data_7_ a_CSR_data_8_ a_CSR_data_9_ a_CSR_data_10_ a_CSR_data_11_ a_CSR_data_12_ a_CSR_data_13_ a_CSR_data_14_ a_CSR_data_15_ a_CSR_data_16_ a_CSR_data_17_ a_CSR_data_18_ a_CSR_data_19_ a_CSR_data_20_ a_CSR_data_21_ a_CSR_data_22_ a_CSR_data_23_ a_CSR_data_24_ a_CSR_data_25_ a_CSR_data_26_ a_CSR_data_27_ a_CSR_data_28_ a_CSR_data_29_ a_CSR_data_30_ a_CSR_data_31_ a_CSR_mcause_0_ a_CSR_mcause_1_ a_CSR_mcause_2_ a_CSR_mcause_3_ a_CSR_mepc_0_ a_CSR_mepc_1_ a_CSR_mepc_2_ a_CSR_mepc_3_ a_CSR_mepc_4_ a_CSR_mepc_5_ a_CSR_mepc_6_ a_CSR_mepc_7_ a_CSR_mepc_8_ a_CSR_mepc_9_ a_CSR_mepc_10_ a_CSR_mepc_11_ a_CSR_mepc_12_ a_CSR_mepc_13_ a_CSR_mepc_14_ a_CSR_mepc_15_ a_CSR_mepc_16_ a_CSR_mepc_17_ a_CSR_mepc_18_ a_CSR_mepc_19_ a_CSR_mepc_20_ a_CSR_mepc_21_ a_CSR_mepc_22_ a_CSR_mepc_23_ a_CSR_mepc_24_ a_CSR_mepc_25_ a_CSR_mepc_26_ a_CSR_mepc_27_ a_CSR_mepc_28_ a_CSR_mepc_29_ a_CSR_mepc_30_ a_CSR_mepc_31_ a_Extern_IRQ a_clk
ABUFX2_insert71 [_31_] _31__bF$buf0 d_lut_BUFX2
ABUFX2_insert70 [_31_] _31__bF$buf1 d_lut_BUFX2
ABUFX2_insert69 [_31_] _31__bF$buf2 d_lut_BUFX2
ABUFX2_insert68 [_31_] _31__bF$buf3 d_lut_BUFX2
ABUFX2_insert67 [_31_] _31__bF$buf4 d_lut_BUFX2
ABUFX2_insert66 [CSR_Ret] CSR_Ret_bF$buf0 d_lut_BUFX2
ABUFX2_insert65 [CSR_Ret] CSR_Ret_bF$buf1 d_lut_BUFX2
ABUFX2_insert64 [CSR_Ret] CSR_Ret_bF$buf2 d_lut_BUFX2
ABUFX2_insert63 [CSR_Ret] CSR_Ret_bF$buf3 d_lut_BUFX2
ABUFX2_insert62 [CSR_Ret] CSR_Ret_bF$buf4 d_lut_BUFX2
ABUFX2_insert61 [CSR_Ret] CSR_Ret_bF$buf5 d_lut_BUFX2
ABUFX2_insert60 [_11_] _11__bF$buf0 d_lut_BUFX2
ABUFX2_insert59 [_11_] _11__bF$buf1 d_lut_BUFX2
ABUFX2_insert58 [_11_] _11__bF$buf2 d_lut_BUFX2
ABUFX2_insert57 [_11_] _11__bF$buf3 d_lut_BUFX2
ABUFX2_insert56 [_11_] _11__bF$buf4 d_lut_BUFX2
ABUFX2_insert55 [_237_] _237__bF$buf0 d_lut_BUFX2
ABUFX2_insert54 [_237_] _237__bF$buf1 d_lut_BUFX2
ABUFX2_insert53 [_237_] _237__bF$buf2 d_lut_BUFX2
ABUFX2_insert52 [_237_] _237__bF$buf3 d_lut_BUFX2
ABUFX2_insert51 [_237_] _237__bF$buf4 d_lut_BUFX2
ABUFX2_insert50 [_108_] _108__bF$buf0 d_lut_BUFX2
ABUFX2_insert49 [_108_] _108__bF$buf1 d_lut_BUFX2
ABUFX2_insert48 [_108_] _108__bF$buf2 d_lut_BUFX2
ABUFX2_insert47 [_108_] _108__bF$buf3 d_lut_BUFX2
ABUFX2_insert46 [_108_] _108__bF$buf4 d_lut_BUFX2
ABUFX2_insert45 [_114_] _114__bF$buf0 d_lut_BUFX2
ABUFX2_insert44 [_114_] _114__bF$buf1 d_lut_BUFX2
ABUFX2_insert43 [_114_] _114__bF$buf2 d_lut_BUFX2
ABUFX2_insert42 [_114_] _114__bF$buf3 d_lut_BUFX2
ABUFX2_insert41 [_114_] _114__bF$buf4 d_lut_BUFX2
ABUFX2_insert40 [_114_] _114__bF$buf5 d_lut_BUFX2
ABUFX2_insert39 [_114_] _114__bF$buf6 d_lut_BUFX2
ABUFX2_insert38 [_170_] _170__bF$buf0 d_lut_BUFX2
ABUFX2_insert37 [_170_] _170__bF$buf1 d_lut_BUFX2
ABUFX2_insert36 [_170_] _170__bF$buf2 d_lut_BUFX2
ABUFX2_insert35 [_170_] _170__bF$buf3 d_lut_BUFX2
ABUFX2_insert34 [_170_] _170__bF$buf4 d_lut_BUFX2
ABUFX2_insert33 [_170_] _170__bF$buf5 d_lut_BUFX2
ABUFX2_insert32 [_170_] _170__bF$buf6 d_lut_BUFX2
ABUFX2_insert31 [_24_] _24__bF$buf0 d_lut_BUFX2
ABUFX2_insert30 [_24_] _24__bF$buf1 d_lut_BUFX2
ABUFX2_insert29 [_24_] _24__bF$buf2 d_lut_BUFX2
ABUFX2_insert28 [_24_] _24__bF$buf3 d_lut_BUFX2
ABUFX2_insert27 [_24_] _24__bF$buf4 d_lut_BUFX2
ABUFX2_insert26 [CSR_Wen_traps] CSR_Wen_traps_bF$buf0 d_lut_BUFX2
ABUFX2_insert25 [CSR_Wen_traps] CSR_Wen_traps_bF$buf1 d_lut_BUFX2
ABUFX2_insert24 [CSR_Wen_traps] CSR_Wen_traps_bF$buf2 d_lut_BUFX2
ABUFX2_insert23 [CSR_Wen_traps] CSR_Wen_traps_bF$buf3 d_lut_BUFX2
ABUFX2_insert22 [CSR_Wen_traps] CSR_Wen_traps_bF$buf4 d_lut_BUFX2
ABUFX2_insert21 [CSR_Wen_traps] CSR_Wen_traps_bF$buf5 d_lut_BUFX2
ABUFX2_insert20 [_235_] _235__bF$buf0 d_lut_BUFX2
ABUFX2_insert19 [_235_] _235__bF$buf1 d_lut_BUFX2
ABUFX2_insert18 [_235_] _235__bF$buf2 d_lut_BUFX2
ABUFX2_insert17 [_235_] _235__bF$buf3 d_lut_BUFX2
ABUFX2_insert16 [_235_] _235__bF$buf4 d_lut_BUFX2
ACLKBUF1_insert15 [clk] clk_bF$buf0 d_lut_CLKBUF1
ACLKBUF1_insert14 [clk] clk_bF$buf1 d_lut_CLKBUF1
ACLKBUF1_insert13 [clk] clk_bF$buf2 d_lut_CLKBUF1
ACLKBUF1_insert12 [clk] clk_bF$buf3 d_lut_CLKBUF1
ACLKBUF1_insert11 [clk] clk_bF$buf4 d_lut_CLKBUF1
ACLKBUF1_insert10 [clk] clk_bF$buf5 d_lut_CLKBUF1
ACLKBUF1_insert9 [clk] clk_bF$buf6 d_lut_CLKBUF1
ACLKBUF1_insert8 [clk] clk_bF$buf7 d_lut_CLKBUF1
ACLKBUF1_insert7 [clk] clk_bF$buf8 d_lut_CLKBUF1
ABUFX2_insert6 [_112_] _112__bF$buf0 d_lut_BUFX2
ABUFX2_insert5 [_112_] _112__bF$buf1 d_lut_BUFX2
ABUFX2_insert4 [_112_] _112__bF$buf2 d_lut_BUFX2
ABUFX2_insert3 [_112_] _112__bF$buf3 d_lut_BUFX2
ABUFX2_insert2 [_112_] _112__bF$buf4 d_lut_BUFX2
ABUFX2_insert1 [_112_] _112__bF$buf5 d_lut_BUFX2
ABUFX2_insert0 [_112_] _112__bF$buf6 d_lut_BUFX2
A_1000_ [mepc_11_ CSR_Ret_bF$buf5] _375_ d_lut_NAND2X1
A_1001_ [_372_ _192_ _194_] _376_ d_lut_OAI21X1
A_1002_ [_376_] _377_ d_lut_INVX1
A_1003_ [mvect_12_ mvect_13_] _378_ d_lut_NAND2X1
A_1004_ [_372_ _378_ _108__bF$buf4] _379_ d_lut_OAI21X1
A_1005_ [_377_ _379_ _375_] _486__13_ d_lut_OAI21X1
A_1006_ [mepc_12_ CSR_Ret_bF$buf4] _380_ d_lut_NAND2X1
A_1007_ [_372_ _378_ _196_] _381_ d_lut_OAI21X1
A_1008_ [_381_] _382_ d_lut_INVX1
A_1009_ [_372_ _378_] _383_ d_lut_OR2X2
A_1010_ [_383_ _196_ _108__bF$buf3] _384_ d_lut_OAI21X1
A_1011_ [_384_ _382_ _380_] _486__14_ d_lut_OAI21X1
A_1012_ [mepc_13_ CSR_Ret_bF$buf3] _385_ d_lut_NAND2X1
A_1013_ [_383_ _196_ _198_] _386_ d_lut_OAI21X1
A_1014_ [_386_] _387_ d_lut_INVX1
A_1015_ [mvect_14_ mvect_15_] _388_ d_lut_NAND2X1
A_1016_ [_378_ _388_] _389_ d_lut_OR2X2
A_1017_ [_372_ _389_ _108__bF$buf2] _390_ d_lut_OAI21X1
A_1018_ [_387_ _390_ _385_] _486__15_ d_lut_OAI21X1
A_1019_ [mepc_14_ CSR_Ret_bF$buf2] _391_ d_lut_NAND2X1
A_1020_ [_389_ _372_] _392_ d_lut_NOR2X1
A_1021_ [_378_ _388_] _393_ d_lut_NOR2X1
A_1022_ [_371_ _393_ _350_] _394_ d_lut_NAND3X1
A_1023_ [_328_ _394_] _395_ d_lut_NOR2X1
A_1024_ [mvect_16_ _395_] _396_ d_lut_NAND2X1
A_1025_ [mvect_16_ _392_ _396_] _397_ d_lut_OAI21X1
A_1026_ [_397_ CSR_Ret_bF$buf1 _391_] _486__16_ d_lut_OAI21X1
A_1027_ [mepc_15_ CSR_Ret_bF$buf0] _398_ d_lut_NAND2X1
A_1028_ [mvect_16_ _395_ mvect_17_] _399_ d_lut_AOI21X1
A_1029_ [_392_] _400_ d_lut_INVX2
A_1030_ [mvect_16_ mvect_17_] _401_ d_lut_NAND2X1
A_1031_ [_400_ _401_ _108__bF$buf1] _402_ d_lut_OAI21X1
A_1032_ [_402_ _399_ _398_] _486__17_ d_lut_OAI21X1
A_1033_ [mepc_16_ CSR_Ret_bF$buf5] _403_ d_lut_NAND2X1
A_1034_ [mvect_16_ mvect_17_] _404_ d_lut_AND2X2
A_1035_ [_404_ _392_ mvect_18_] _405_ d_lut_AOI21X1
A_1036_ [mvect_18_ _404_] _406_ d_lut_NAND2X1
A_1037_ [_400_ _406_ _108__bF$buf0] _407_ d_lut_OAI21X1
A_1038_ [_407_ _405_ _403_] _486__18_ d_lut_OAI21X1
A_1039_ [mepc_17_ CSR_Ret_bF$buf4] _408_ d_lut_NAND2X1
A_1040_ [_406_] _409_ d_lut_INVX1
A_1041_ [_409_ _395_ mvect_19_] _410_ d_lut_AOI21X1
A_1042_ [mvect_18_ mvect_19_] _411_ d_lut_AND2X2
A_1043_ [_404_ _411_] _412_ d_lut_NAND2X1
A_1044_ [_400_ _412_ _108__bF$buf4] _413_ d_lut_OAI21X1
A_1045_ [_413_ _410_ _408_] _486__19_ d_lut_OAI21X1
A_1046_ [mepc_18_ CSR_Ret_bF$buf3] _414_ d_lut_NAND2X1
A_1047_ [_404_ _411_ _392_] _415_ d_lut_NAND3X1
A_1048_ [_415_ _208_] _416_ d_lut_AND2X2
A_1049_ [_415_ _208_ _108__bF$buf3] _417_ d_lut_OAI21X1
A_1050_ [_416_ _417_ _414_] _486__20_ d_lut_OAI21X1
A_1051_ [mepc_19_ CSR_Ret_bF$buf2] _418_ d_lut_NAND2X1
A_1052_ [_208_ _412_] _419_ d_lut_NOR2X1
A_1053_ [_419_ _395_ mvect_21_] _420_ d_lut_AOI21X1
A_1054_ [mvect_20_ mvect_21_] _421_ d_lut_AND2X2
A_1055_ [_404_ _411_ _421_] _422_ d_lut_NAND3X1
A_1056_ [_400_ _422_ _108__bF$buf2] _423_ d_lut_OAI21X1
A_1057_ [_423_ _420_ _418_] _486__21_ d_lut_OAI21X1
A_1058_ [mepc_20_ CSR_Ret_bF$buf1] _424_ d_lut_NAND2X1
A_1059_ [mvect_18_ mvect_19_] _425_ d_lut_NAND2X1
A_1060_ [mvect_20_ mvect_21_] _426_ d_lut_NAND2X1
A_1061_ [_401_ _425_ _426_] _427_ d_lut_NOR3X1
A_1062_ [_371_ _393_ _427_] _428_ d_lut_NAND3X1
A_1063_ [_356_ _428_] _429_ d_lut_NOR2X1
A_1064_ [mvect_22_ _429_] _430_ d_lut_NOR2X1
A_1065_ [mvect_22_ _429_] _431_ d_lut_NAND2X1
A_1066_ [_108__bF$buf1 _431_] _432_ d_lut_NAND2X1
A_1067_ [_432_ _430_ _424_] _486__22_ d_lut_OAI21X1
A_1068_ [mepc_21_ _108__bF$buf0] _433_ d_lut_NOR2X1
A_1069_ [_431_ mvect_23_] _434_ d_lut_OR2X2
A_1070_ [mvect_23_ _431_ CSR_Ret_bF$buf0] _435_ d_lut_AOI21X1
A_1071_ [_435_ _434_ _433_] _486__23_ d_lut_AOI21X1
A_1072_ [mepc_22_ CSR_Ret_bF$buf5] _436_ d_lut_NAND2X1
A_1073_ [mvect_22_ mvect_23_] _437_ d_lut_NAND2X1
A_1074_ [_356_ _437_ _428_] _438_ d_lut_NOR3X1
A_1075_ [mvect_24_ _438_] _439_ d_lut_NOR2X1
A_1076_ [_438_] _440_ d_lut_INVX1
A_1077_ [_440_ _216_ _108__bF$buf4] _441_ d_lut_OAI21X1
A_1078_ [_441_ _439_ _436_] _486__24_ d_lut_OAI21X1
A_1079_ [mepc_23_ CSR_Ret_bF$buf4] _442_ d_lut_NAND2X1
A_1080_ [mvect_24_ _438_ mvect_25_] _443_ d_lut_AOI21X1
A_1081_ [mvect_24_ mvect_25_] _444_ d_lut_NAND2X1
A_1082_ [_440_ _444_ _108__bF$buf3] _445_ d_lut_OAI21X1
A_1083_ [_445_ _443_ _442_] _486__25_ d_lut_OAI21X1
A_1084_ [_444_] _446_ d_lut_INVX1
A_1085_ [_446_ _438_ mvect_26_] _447_ d_lut_AOI21X1
A_1086_ [mvect_26_ _446_ _438_] _448_ d_lut_NAND3X1
A_1087_ [_108__bF$buf2 _448_] _449_ d_lut_NAND2X1
A_1088_ [mepc_24_ CSR_Ret_bF$buf3] _450_ d_lut_NAND2X1
A_1089_ [_449_ _447_ _450_] _486__26_ d_lut_OAI21X1
A_1090_ [_222_ _108__bF$buf1 _448_] _451_ d_lut_NAND3X1
A_1091_ [mepc_25_ _108__bF$buf0] _452_ d_lut_NOR2X1
A_1092_ [mvect_26_ mvect_27_] _453_ d_lut_NAND2X1
A_1093_ [_444_ _453_] _454_ d_lut_NOR2X1
A_1094_ [_454_ _108__bF$buf4] _455_ d_lut_AND2X2
A_1095_ [_455_ _438_ _452_] _456_ d_lut_AOI21X1
A_1096_ [_451_ _456_] _486__27_ d_lut_AND2X2
A_1097_ [mepc_26_ CSR_Ret_bF$buf2] _457_ d_lut_NAND2X1
A_1098_ [_437_ _444_ _453_] _458_ d_lut_NOR3X1
A_1099_ [_458_] _459_ d_lut_INVX1
A_1100_ [_356_ _459_ _428_] _460_ d_lut_NOR3X1
A_1101_ [mvect_28_ _460_] _461_ d_lut_NOR2X1
A_1102_ [_368_ _389_ _422_] _462_ d_lut_NOR3X1
A_1103_ [_351_ _458_ _462_] _463_ d_lut_NAND3X1
A_1104_ [_463_ _224_ _108__bF$buf3] _464_ d_lut_OAI21X1
A_1105_ [_464_ _461_ _457_] _486__28_ d_lut_OAI21X1
A_1106_ [mepc_27_ _108__bF$buf2] _465_ d_lut_NOR2X1
A_1107_ [mvect_28_ _460_] _466_ d_lut_NAND2X1
A_1108_ [_466_ mvect_29_] _467_ d_lut_OR2X2
A_1109_ [mvect_29_ _466_ CSR_Ret_bF$buf1] _468_ d_lut_AOI21X1
A_1110_ [_468_ _467_ _465_] _486__29_ d_lut_AOI21X1
A_1111_ [mepc_28_] _469_ d_lut_INVX1
A_1112_ [mvect_28_ mvect_29_] _470_ d_lut_NAND2X1
A_1113_ [_0_ _470_ _157_] _471_ d_lut_NOR3X1
A_1114_ [_350_ _458_ _471_] _472_ d_lut_NAND3X1
A_1115_ [_472_ _428_ mvect_30_] _473_ d_lut_OAI21X1
A_1116_ [_473_] _474_ d_lut_INVX1
A_1117_ [_428_ _472_] _475_ d_lut_NOR2X1
A_1118_ [_475_ _228_] _476_ d_lut_AND2X2
A_1119_ [_476_ _474_ _108__bF$buf1] _477_ d_lut_OAI21X1
A_1120_ [_469_ _108__bF$buf0 _477_] _486__30_ d_lut_OAI21X1
A_1121_ [_470_] _478_ d_lut_INVX1
A_1122_ [mvect_30_ _478_] _479_ d_lut_NAND2X1
A_1123_ [_479_] _480_ d_lut_INVX1
A_1124_ [_480_ _460_ _230_] _481_ d_lut_AOI21X1
A_1125_ [mvect_31_ _479_ _463_] _482_ d_lut_NOR3X1
A_1126_ [_482_ _481_ _108__bF$buf4] _483_ d_lut_OAI21X1
A_1127_ [mepc_29_ CSR_Ret_bF$buf0] _484_ d_lut_NAND2X1
A_1128_ [_484_ _483_] _486__31_ d_lut_NAND2X1
A_1129_ [_485_] CSR_IRQ d_lut_BUFX2
A_1130_ [gnd] CSR_PCaddr_0_ d_lut_BUFX2
A_1131_ [gnd] CSR_PCaddr_1_ d_lut_BUFX2
A_1132_ [_486__2_] CSR_PCaddr_2_ d_lut_BUFX2
A_1133_ [_486__3_] CSR_PCaddr_3_ d_lut_BUFX2
A_1134_ [_486__4_] CSR_PCaddr_4_ d_lut_BUFX2
A_1135_ [_486__5_] CSR_PCaddr_5_ d_lut_BUFX2
A_1136_ [_486__6_] CSR_PCaddr_6_ d_lut_BUFX2
A_1137_ [_486__7_] CSR_PCaddr_7_ d_lut_BUFX2
A_1138_ [_486__8_] CSR_PCaddr_8_ d_lut_BUFX2
A_1139_ [_486__9_] CSR_PCaddr_9_ d_lut_BUFX2
A_1140_ [_486__10_] CSR_PCaddr_10_ d_lut_BUFX2
A_1141_ [_486__11_] CSR_PCaddr_11_ d_lut_BUFX2
A_1142_ [_486__12_] CSR_PCaddr_12_ d_lut_BUFX2
A_1143_ [_486__13_] CSR_PCaddr_13_ d_lut_BUFX2
A_1144_ [_486__14_] CSR_PCaddr_14_ d_lut_BUFX2
A_1145_ [_486__15_] CSR_PCaddr_15_ d_lut_BUFX2
A_1146_ [_486__16_] CSR_PCaddr_16_ d_lut_BUFX2
A_1147_ [_486__17_] CSR_PCaddr_17_ d_lut_BUFX2
A_1148_ [_486__18_] CSR_PCaddr_18_ d_lut_BUFX2
A_1149_ [_486__19_] CSR_PCaddr_19_ d_lut_BUFX2
A_1150_ [_486__20_] CSR_PCaddr_20_ d_lut_BUFX2
A_1151_ [_486__21_] CSR_PCaddr_21_ d_lut_BUFX2
A_1152_ [_486__22_] CSR_PCaddr_22_ d_lut_BUFX2
A_1153_ [_486__23_] CSR_PCaddr_23_ d_lut_BUFX2
A_1154_ [_486__24_] CSR_PCaddr_24_ d_lut_BUFX2
A_1155_ [_486__25_] CSR_PCaddr_25_ d_lut_BUFX2
A_1156_ [_486__26_] CSR_PCaddr_26_ d_lut_BUFX2
A_1157_ [_486__27_] CSR_PCaddr_27_ d_lut_BUFX2
A_1158_ [_486__28_] CSR_PCaddr_28_ d_lut_BUFX2
A_1159_ [_486__29_] CSR_PCaddr_29_ d_lut_BUFX2
A_1160_ [_486__30_] CSR_PCaddr_30_ d_lut_BUFX2
A_1161_ [_486__31_] CSR_PCaddr_31_ d_lut_BUFX2
A_1162_ [_487__0_] CSR_data_0_ d_lut_BUFX2
A_1163_ [_487__1_] CSR_data_1_ d_lut_BUFX2
A_1164_ [_487__2_] CSR_data_2_ d_lut_BUFX2
A_1165_ [_487__3_] CSR_data_3_ d_lut_BUFX2
A_1166_ [_487__4_] CSR_data_4_ d_lut_BUFX2
A_1167_ [_487__5_] CSR_data_5_ d_lut_BUFX2
A_1168_ [_487__6_] CSR_data_6_ d_lut_BUFX2
A_1169_ [_487__7_] CSR_data_7_ d_lut_BUFX2
A_1170_ [_487__8_] CSR_data_8_ d_lut_BUFX2
A_1171_ [_487__9_] CSR_data_9_ d_lut_BUFX2
A_1172_ [_487__10_] CSR_data_10_ d_lut_BUFX2
A_1173_ [_487__11_] CSR_data_11_ d_lut_BUFX2
A_1174_ [_487__12_] CSR_data_12_ d_lut_BUFX2
A_1175_ [_487__13_] CSR_data_13_ d_lut_BUFX2
A_1176_ [_487__14_] CSR_data_14_ d_lut_BUFX2
A_1177_ [_487__15_] CSR_data_15_ d_lut_BUFX2
A_1178_ [_487__16_] CSR_data_16_ d_lut_BUFX2
A_1179_ [_487__17_] CSR_data_17_ d_lut_BUFX2
A_1180_ [_487__18_] CSR_data_18_ d_lut_BUFX2
A_1181_ [_487__19_] CSR_data_19_ d_lut_BUFX2
A_1182_ [_487__20_] CSR_data_20_ d_lut_BUFX2
A_1183_ [_487__21_] CSR_data_21_ d_lut_BUFX2
A_1184_ [_487__22_] CSR_data_22_ d_lut_BUFX2
A_1185_ [_487__23_] CSR_data_23_ d_lut_BUFX2
A_1186_ [_487__24_] CSR_data_24_ d_lut_BUFX2
A_1187_ [_487__25_] CSR_data_25_ d_lut_BUFX2
A_1188_ [_487__26_] CSR_data_26_ d_lut_BUFX2
A_1189_ [_487__27_] CSR_data_27_ d_lut_BUFX2
A_1190_ [_487__28_] CSR_data_28_ d_lut_BUFX2
A_1191_ [_487__29_] CSR_data_29_ d_lut_BUFX2
A_1192_ [_487__30_] CSR_data_30_ d_lut_BUFX2
A_1193_ [_487__31_] CSR_data_31_ d_lut_BUFX2
A_1194_ _21__0_ clk_bF$buf8 NULL NULL mepc_0_ NULL ddflop
A_1195_ _21__1_ clk_bF$buf7 NULL NULL mepc_1_ NULL ddflop
A_1196_ _21__2_ clk_bF$buf6 NULL NULL mepc_2_ NULL ddflop
A_1197_ _21__3_ clk_bF$buf5 NULL NULL mepc_3_ NULL ddflop
A_1198_ _21__4_ clk_bF$buf4 NULL NULL mepc_4_ NULL ddflop
A_1199_ _21__5_ clk_bF$buf3 NULL NULL mepc_5_ NULL ddflop
A_1200_ _21__6_ clk_bF$buf2 NULL NULL mepc_6_ NULL ddflop
A_1201_ _21__7_ clk_bF$buf1 NULL NULL mepc_7_ NULL ddflop
A_1202_ _21__8_ clk_bF$buf0 NULL NULL mepc_8_ NULL ddflop
A_1203_ _21__9_ clk_bF$buf8 NULL NULL mepc_9_ NULL ddflop
A_1204_ _21__10_ clk_bF$buf7 NULL NULL mepc_10_ NULL ddflop
A_1205_ _21__11_ clk_bF$buf6 NULL NULL mepc_11_ NULL ddflop
A_1206_ _21__12_ clk_bF$buf5 NULL NULL mepc_12_ NULL ddflop
A_1207_ _21__13_ clk_bF$buf4 NULL NULL mepc_13_ NULL ddflop
A_1208_ _21__14_ clk_bF$buf3 NULL NULL mepc_14_ NULL ddflop
A_1209_ _21__15_ clk_bF$buf2 NULL NULL mepc_15_ NULL ddflop
A_1210_ _21__16_ clk_bF$buf1 NULL NULL mepc_16_ NULL ddflop
A_1211_ _21__17_ clk_bF$buf0 NULL NULL mepc_17_ NULL ddflop
A_1212_ _21__18_ clk_bF$buf8 NULL NULL mepc_18_ NULL ddflop
A_1213_ _21__19_ clk_bF$buf7 NULL NULL mepc_19_ NULL ddflop
A_1214_ _21__20_ clk_bF$buf6 NULL NULL mepc_20_ NULL ddflop
A_1215_ _21__21_ clk_bF$buf5 NULL NULL mepc_21_ NULL ddflop
A_1216_ _21__22_ clk_bF$buf4 NULL NULL mepc_22_ NULL ddflop
A_1217_ _21__23_ clk_bF$buf3 NULL NULL mepc_23_ NULL ddflop
A_1218_ _21__24_ clk_bF$buf2 NULL NULL mepc_24_ NULL ddflop
A_1219_ _21__25_ clk_bF$buf1 NULL NULL mepc_25_ NULL ddflop
A_1220_ _21__26_ clk_bF$buf0 NULL NULL mepc_26_ NULL ddflop
A_1221_ _21__27_ clk_bF$buf8 NULL NULL mepc_27_ NULL ddflop
A_1222_ _21__28_ clk_bF$buf7 NULL NULL mepc_28_ NULL ddflop
A_1223_ _21__29_ clk_bF$buf6 NULL NULL mepc_29_ NULL ddflop
A_1224_ Extern_IRQ clk_bF$buf5 NULL NULL meta_irq NULL ddflop
A_1225_ meta_irq clk_bF$buf4 NULL NULL mip NULL ddflop
A_1226_ _14_ clk_bF$buf3 NULL NULL mie NULL ddflop
A_1227_ _07__0_ clk_bF$buf2 NULL NULL mvect_0_ NULL ddflop
A_1228_ _07__1_ clk_bF$buf1 NULL NULL mvect_1_ NULL ddflop
A_1229_ _07__2_ clk_bF$buf0 NULL NULL mvect_2_ NULL ddflop
A_1230_ _07__3_ clk_bF$buf8 NULL NULL mvect_3_ NULL ddflop
A_1231_ _07__4_ clk_bF$buf7 NULL NULL mvect_4_ NULL ddflop
A_1232_ _07__5_ clk_bF$buf6 NULL NULL mvect_5_ NULL ddflop
A_1233_ _07__6_ clk_bF$buf5 NULL NULL mvect_6_ NULL ddflop
A_1234_ _07__7_ clk_bF$buf4 NULL NULL mvect_7_ NULL ddflop
A_1235_ _07__8_ clk_bF$buf3 NULL NULL mvect_8_ NULL ddflop
A_1236_ _07__9_ clk_bF$buf2 NULL NULL mvect_9_ NULL ddflop
A_1237_ _07__10_ clk_bF$buf1 NULL NULL mvect_10_ NULL ddflop
A_1238_ _07__11_ clk_bF$buf0 NULL NULL mvect_11_ NULL ddflop
A_1239_ _07__12_ clk_bF$buf8 NULL NULL mvect_12_ NULL ddflop
A_1240_ _07__13_ clk_bF$buf7 NULL NULL mvect_13_ NULL ddflop
A_1241_ _07__14_ clk_bF$buf6 NULL NULL mvect_14_ NULL ddflop
A_1242_ _07__15_ clk_bF$buf5 NULL NULL mvect_15_ NULL ddflop
A_1243_ _07__16_ clk_bF$buf4 NULL NULL mvect_16_ NULL ddflop
A_1244_ _07__17_ clk_bF$buf3 NULL NULL mvect_17_ NULL ddflop
A_1245_ _07__18_ clk_bF$buf2 NULL NULL mvect_18_ NULL ddflop
A_1246_ _07__19_ clk_bF$buf1 NULL NULL mvect_19_ NULL ddflop
A_1247_ _07__20_ clk_bF$buf0 NULL NULL mvect_20_ NULL ddflop
A_1248_ _07__21_ clk_bF$buf8 NULL NULL mvect_21_ NULL ddflop
A_1249_ _07__22_ clk_bF$buf7 NULL NULL mvect_22_ NULL ddflop
A_1250_ _07__23_ clk_bF$buf6 NULL NULL mvect_23_ NULL ddflop
A_1251_ _07__24_ clk_bF$buf5 NULL NULL mvect_24_ NULL ddflop
A_1252_ _07__25_ clk_bF$buf4 NULL NULL mvect_25_ NULL ddflop
A_1253_ _07__26_ clk_bF$buf3 NULL NULL mvect_26_ NULL ddflop
A_1254_ _07__27_ clk_bF$buf2 NULL NULL mvect_27_ NULL ddflop
A_1255_ _07__28_ clk_bF$buf1 NULL NULL mvect_28_ NULL ddflop
A_1256_ _07__29_ clk_bF$buf0 NULL NULL mvect_29_ NULL ddflop
A_1257_ _07__30_ clk_bF$buf8 NULL NULL mvect_30_ NULL ddflop
A_1258_ _07__31_ clk_bF$buf7 NULL NULL mvect_31_ NULL ddflop
A_1259_ _33__0_ clk_bF$buf6 NULL NULL mstatus_0_ NULL ddflop
A_1260_ _33__1_ clk_bF$buf5 NULL NULL mstatus_1_ NULL ddflop
A_1261_ _28__0_ clk_bF$buf4 NULL NULL mcause_0_ NULL ddflop
A_1262_ _28__1_ clk_bF$buf3 NULL NULL mcause_1_ NULL ddflop
A_1263_ _28__2_ clk_bF$buf2 NULL NULL mcause_2_ NULL ddflop
A_1264_ _28__3_ clk_bF$buf1 NULL NULL mcause_3_ NULL ddflop
A_1265_ _28__4_ clk_bF$buf0 NULL NULL mcause_4_ NULL ddflop
A_1266_ _28__5_ clk_bF$buf8 NULL NULL mcause_5_ NULL ddflop
A_1267_ _28__6_ clk_bF$buf7 NULL NULL mcause_6_ NULL ddflop
A_1268_ _28__7_ clk_bF$buf6 NULL NULL mcause_7_ NULL ddflop
A_1269_ _28__8_ clk_bF$buf5 NULL NULL mcause_8_ NULL ddflop
A_1270_ _28__9_ clk_bF$buf4 NULL NULL mcause_9_ NULL ddflop
A_1271_ _28__10_ clk_bF$buf3 NULL NULL mcause_10_ NULL ddflop
A_1272_ _28__11_ clk_bF$buf2 NULL NULL mcause_11_ NULL ddflop
A_1273_ _28__12_ clk_bF$buf1 NULL NULL mcause_12_ NULL ddflop
A_1274_ _28__13_ clk_bF$buf0 NULL NULL mcause_13_ NULL ddflop
A_1275_ _28__14_ clk_bF$buf8 NULL NULL mcause_14_ NULL ddflop
A_1276_ _28__15_ clk_bF$buf7 NULL NULL mcause_15_ NULL ddflop
A_1277_ _28__16_ clk_bF$buf6 NULL NULL mcause_16_ NULL ddflop
A_1278_ _28__17_ clk_bF$buf5 NULL NULL mcause_17_ NULL ddflop
A_1279_ _28__18_ clk_bF$buf4 NULL NULL mcause_18_ NULL ddflop
A_1280_ _28__19_ clk_bF$buf3 NULL NULL mcause_19_ NULL ddflop
A_1281_ _28__20_ clk_bF$buf2 NULL NULL mcause_20_ NULL ddflop
A_1282_ _28__21_ clk_bF$buf1 NULL NULL mcause_21_ NULL ddflop
A_1283_ _28__22_ clk_bF$buf0 NULL NULL mcause_22_ NULL ddflop
A_1284_ _28__23_ clk_bF$buf8 NULL NULL mcause_23_ NULL ddflop
A_1285_ _28__24_ clk_bF$buf7 NULL NULL mcause_24_ NULL ddflop
A_1286_ _28__25_ clk_bF$buf6 NULL NULL mcause_25_ NULL ddflop
A_1287_ _28__26_ clk_bF$buf5 NULL NULL mcause_26_ NULL ddflop
A_1288_ _28__27_ clk_bF$buf4 NULL NULL mcause_27_ NULL ddflop
A_1289_ _28__28_ clk_bF$buf3 NULL NULL mcause_28_ NULL ddflop
A_1290_ _28__29_ clk_bF$buf2 NULL NULL mcause_29_ NULL ddflop
A_1291_ _28__30_ clk_bF$buf1 NULL NULL mcause_30_ NULL ddflop
A_1292_ _28__31_ clk_bF$buf0 NULL NULL mcause_31_ NULL ddflop
A_488_ [mvect_0_] _0_ d_lut_INVX2
A_489_ [CSR_addr_11_ CSR_addr_10_] _1_ d_lut_NOR2X1
A_490_ [CSR_addr_9_ CSR_addr_8_ _1_] _2_ d_lut_NAND3X1
A_491_ [CSR_addr_7_] _3_ d_lut_INVX1
A_492_ [CSR_addr_5_ CSR_addr_4_] _4_ d_lut_NOR2X1
A_493_ [_3_ CSR_addr_6_ _4_] _5_ d_lut_NAND3X1
A_494_ [_2_ _5_] _6_ d_lut_NOR2X1
A_495_ [CSR_addr_3_ CSR_addr_2_] _7_ d_lut_OR2X2
A_496_ [CSR_addr_0_] _8_ d_lut_INVX1
A_497_ [CSR_addr_1_ _8_] _9_ d_lut_NAND2X1
A_498_ [_7_ _9_] _10_ d_lut_NOR2X1
A_499_ [_10_ _6_] _11_ d_lut_NAND2X1
A_500_ [_11__bF$buf4] _12_ d_lut_INVX4
A_501_ [mcause_0_ _12_] _13_ d_lut_NAND2X1
A_502_ [CSR_addr_7_ CSR_addr_6_] _15_ d_lut_NOR2X1
A_503_ [_4_ _15_] _16_ d_lut_NAND2X1
A_504_ [_16_ _2_] _17_ d_lut_NOR2X1
A_505_ [CSR_addr_1_] _18_ d_lut_INVX1
A_506_ [CSR_addr_0_ _18_] _19_ d_lut_NAND2X1
A_507_ [CSR_addr_3_] _20_ d_lut_INVX1
A_508_ [CSR_addr_2_ _20_] _22_ d_lut_NAND2X1
A_509_ [_19_ _22_] _23_ d_lut_NOR2X1
A_510_ [_17_ _23_] _24_ d_lut_AND2X2
A_511_ [_24__bF$buf4] _25_ d_lut_INVX1
A_512_ [_0_ _25_ _13_] _487__0_ d_lut_OAI21X1
A_513_ [mvect_1_] _26_ d_lut_INVX1
A_514_ [mcause_1_ _12_] _27_ d_lut_NAND2X1
A_515_ [_26_ _25_ _27_] _487__1_ d_lut_OAI21X1
A_516_ [mcause_2_] _29_ d_lut_INVX1
A_517_ [_7_ _19_] _30_ d_lut_NOR2X1
A_518_ [_6_ _30_] _31_ d_lut_AND2X2
A_519_ [_24__bF$buf3 mvect_2_ mepc_0_ _31__bF$buf4] _32_ d_lut_AOI22X1
A_520_ [_29_ _11__bF$buf3 _32_] _487__2_ d_lut_OAI21X1
A_521_ [mstatus_0_] _34_ d_lut_INVX1
A_522_ [CSR_addr_1_ CSR_addr_0_] _35_ d_lut_NOR2X1
A_523_ [_17_] _36_ d_lut_INVX1
A_524_ [_7_ _36_] _37_ d_lut_NOR2X1
A_525_ [_35_ _37_] _38_ d_lut_NAND2X1
A_526_ [mepc_1_ _31__bF$buf3] _39_ d_lut_NAND2X1
A_527_ [mvect_3_ _24__bF$buf2 _12_ mcause_3_] _40_ d_lut_AOI22X1
A_528_ [_40_ _39_] _41_ d_lut_AND2X2
A_529_ [_34_ _38_ _41_] _487__3_ d_lut_OAI21X1
A_530_ [mcause_4_] _42_ d_lut_INVX1
A_531_ [_24__bF$buf1 mvect_4_ mepc_2_ _31__bF$buf2] _43_ d_lut_AOI22X1
A_532_ [_42_ _11__bF$buf2 _43_] _487__4_ d_lut_OAI21X1
A_533_ [mcause_5_] _44_ d_lut_INVX1
A_534_ [_24__bF$buf0 mvect_5_ mepc_3_ _31__bF$buf1] _45_ d_lut_AOI22X1
A_535_ [_44_ _11__bF$buf1 _45_] _487__5_ d_lut_OAI21X1
A_536_ [mcause_6_] _46_ d_lut_INVX1
A_537_ [_24__bF$buf4 mvect_6_ mepc_4_ _31__bF$buf0] _47_ d_lut_AOI22X1
A_538_ [_46_ _11__bF$buf0 _47_] _487__6_ d_lut_OAI21X1
A_539_ [mstatus_1_] _48_ d_lut_INVX1
A_540_ [mepc_5_ _31__bF$buf4] _49_ d_lut_NAND2X1
A_541_ [mvect_7_ _24__bF$buf3 _12_ mcause_7_] _50_ d_lut_AOI22X1
A_542_ [_50_ _49_] _51_ d_lut_AND2X2
A_543_ [_48_ _38_ _51_] _487__7_ d_lut_OAI21X1
A_544_ [_17_ _30_] _52_ d_lut_AND2X2
A_545_ [mvect_8_ _24__bF$buf2 _52_] _53_ d_lut_AOI21X1
A_546_ [mepc_6_ _31__bF$buf3 _12_ mcause_8_] _54_ d_lut_AOI22X1
A_547_ [_53_ _54_] _487__8_ d_lut_NAND2X1
A_548_ [mcause_9_] _55_ d_lut_INVX1
A_549_ [_24__bF$buf1 mvect_9_ mepc_7_ _31__bF$buf2] _56_ d_lut_AOI22X1
A_550_ [_55_ _11__bF$buf4 _56_] _487__9_ d_lut_OAI21X1
A_551_ [mcause_10_] _57_ d_lut_INVX1
A_552_ [_24__bF$buf0 mvect_10_ mepc_8_ _31__bF$buf1] _58_ d_lut_AOI22X1
A_553_ [_57_ _11__bF$buf3 _58_] _487__10_ d_lut_OAI21X1
A_554_ [mip] _59_ d_lut_INVX1
A_555_ [_35_] _60_ d_lut_INVX1
A_556_ [_60_ _22_] _61_ d_lut_OR2X2
A_557_ [_59_ _61_] _62_ d_lut_NOR2X1
A_558_ [_6_ _62_ _37_ _35_] _63_ d_lut_AOI22X1
A_559_ [_61_ _36_] _64_ d_lut_NOR2X1
A_560_ [mcause_11_ _12_ _64_ mie] _65_ d_lut_AOI22X1
A_561_ [_24__bF$buf4 mvect_11_ mepc_9_ _31__bF$buf0] _66_ d_lut_AOI22X1
A_562_ [_66_ _63_ _65_] _487__11_ d_lut_NAND3X1
A_563_ [mepc_10_ _31__bF$buf4] _67_ d_lut_NAND2X1
A_564_ [mvect_12_ _24__bF$buf3 _12_ mcause_12_] _68_ d_lut_AOI22X1
A_565_ [_38_ _67_ _68_] _487__12_ d_lut_NAND3X1
A_566_ [mcause_13_] _69_ d_lut_INVX1
A_567_ [_24__bF$buf2 mvect_13_ mepc_11_ _31__bF$buf3] _70_ d_lut_AOI22X1
A_568_ [_69_ _11__bF$buf2 _70_] _487__13_ d_lut_OAI21X1
A_569_ [mcause_14_] _71_ d_lut_INVX1
A_570_ [_24__bF$buf1 mvect_14_ mepc_12_ _31__bF$buf2] _72_ d_lut_AOI22X1
A_571_ [_71_ _11__bF$buf1 _72_] _487__14_ d_lut_OAI21X1
A_572_ [mcause_15_] _73_ d_lut_INVX1
A_573_ [_24__bF$buf0 mvect_15_ mepc_13_ _31__bF$buf1] _74_ d_lut_AOI22X1
A_574_ [_73_ _11__bF$buf0 _74_] _487__15_ d_lut_OAI21X1
A_575_ [mcause_16_] _75_ d_lut_INVX1
A_576_ [_24__bF$buf4 mvect_16_ mepc_14_ _31__bF$buf0] _76_ d_lut_AOI22X1
A_577_ [_75_ _11__bF$buf4 _76_] _487__16_ d_lut_OAI21X1
A_578_ [mcause_17_] _77_ d_lut_INVX1
A_579_ [_24__bF$buf3 mvect_17_ mepc_15_ _31__bF$buf4] _78_ d_lut_AOI22X1
A_580_ [_77_ _11__bF$buf3 _78_] _487__17_ d_lut_OAI21X1
A_581_ [mcause_18_] _79_ d_lut_INVX1
A_582_ [_24__bF$buf2 mvect_18_ mepc_16_ _31__bF$buf3] _80_ d_lut_AOI22X1
A_583_ [_79_ _11__bF$buf2 _80_] _487__18_ d_lut_OAI21X1
A_584_ [mcause_19_] _81_ d_lut_INVX1
A_585_ [_24__bF$buf1 mvect_19_ mepc_17_ _31__bF$buf2] _82_ d_lut_AOI22X1
A_586_ [_81_ _11__bF$buf1 _82_] _487__19_ d_lut_OAI21X1
A_587_ [mcause_20_] _83_ d_lut_INVX1
A_588_ [_24__bF$buf0 mvect_20_ mepc_18_ _31__bF$buf1] _84_ d_lut_AOI22X1
A_589_ [_83_ _11__bF$buf0 _84_] _487__20_ d_lut_OAI21X1
A_590_ [mcause_21_] _85_ d_lut_INVX1
A_591_ [_24__bF$buf4 mvect_21_ mepc_19_ _31__bF$buf0] _86_ d_lut_AOI22X1
A_592_ [_85_ _11__bF$buf4 _86_] _487__21_ d_lut_OAI21X1
A_593_ [mcause_22_] _87_ d_lut_INVX1
A_594_ [_24__bF$buf3 mvect_22_ mepc_20_ _31__bF$buf4] _88_ d_lut_AOI22X1
A_595_ [_87_ _11__bF$buf3 _88_] _487__22_ d_lut_OAI21X1
A_596_ [mcause_23_] _89_ d_lut_INVX1
A_597_ [_24__bF$buf2 mvect_23_ mepc_21_ _31__bF$buf3] _90_ d_lut_AOI22X1
A_598_ [_89_ _11__bF$buf2 _90_] _487__23_ d_lut_OAI21X1
A_599_ [mcause_24_] _91_ d_lut_INVX1
A_600_ [_24__bF$buf1 mvect_24_ mepc_22_ _31__bF$buf2] _92_ d_lut_AOI22X1
A_601_ [_91_ _11__bF$buf1 _92_] _487__24_ d_lut_OAI21X1
A_602_ [mcause_25_] _93_ d_lut_INVX1
A_603_ [_24__bF$buf0 mvect_25_ mepc_23_ _31__bF$buf1] _94_ d_lut_AOI22X1
A_604_ [_93_ _11__bF$buf0 _94_] _487__25_ d_lut_OAI21X1
A_605_ [mcause_26_] _95_ d_lut_INVX1
A_606_ [_24__bF$buf4 mvect_26_ mepc_24_ _31__bF$buf0] _96_ d_lut_AOI22X1
A_607_ [_95_ _11__bF$buf4 _96_] _487__26_ d_lut_OAI21X1
A_608_ [mcause_27_] _97_ d_lut_INVX1
A_609_ [_24__bF$buf3 mvect_27_ mepc_25_ _31__bF$buf4] _98_ d_lut_AOI22X1
A_610_ [_97_ _11__bF$buf3 _98_] _487__27_ d_lut_OAI21X1
A_611_ [mcause_28_] _99_ d_lut_INVX1
A_612_ [_24__bF$buf2 mvect_28_ mepc_26_ _31__bF$buf3] _100_ d_lut_AOI22X1
A_613_ [_99_ _11__bF$buf2 _100_] _487__28_ d_lut_OAI21X1
A_614_ [mcause_29_] _101_ d_lut_INVX1
A_615_ [_24__bF$buf1 mvect_29_ mepc_27_ _31__bF$buf2] _102_ d_lut_AOI22X1
A_616_ [_101_ _11__bF$buf1 _102_] _487__29_ d_lut_OAI21X1
A_617_ [mvect_30_ _24__bF$buf0 _52_] _103_ d_lut_AOI21X1
A_618_ [mepc_28_ _31__bF$buf1 _12_ mcause_30_] _104_ d_lut_AOI22X1
A_619_ [_103_ _104_] _487__30_ d_lut_NAND2X1
A_620_ [mcause_31_] _105_ d_lut_INVX1
A_621_ [_24__bF$buf4 mvect_31_ mepc_29_ _31__bF$buf0] _106_ d_lut_AOI22X1
A_622_ [_105_ _11__bF$buf0 _106_] _487__31_ d_lut_OAI21X1
A_623_ [CSR_mcause_0_ CSR_Wen_traps_bF$buf5] _107_ d_lut_NAND2X1
A_624_ [CSR_Ret_bF$buf5] _108_ d_lut_INVX8
A_625_ [CSR_Wen _108__bF$buf3] _109_ d_lut_NAND2X1
A_626_ [_109_ _11__bF$buf4] _110_ d_lut_NOR2X1
A_627_ [mcause_0_ _110_] _111_ d_lut_NOR2X1
A_628_ [CSR_Wen_traps_bF$buf4] _112_ d_lut_INVX8
A_629_ [_109_] _113_ d_lut_INVX1
A_630_ [_113_ _12_] _114_ d_lut_NAND2X1
A_631_ [_114__bF$buf6 CSR_Wdata_0_ _112__bF$buf6] _115_ d_lut_OAI21X1
A_632_ [_115_ _111_ _107_] _28__0_ d_lut_OAI21X1
A_633_ [CSR_Wen_traps_bF$buf3 CSR_mcause_1_] _116_ d_lut_NAND2X1
A_634_ [mcause_1_ _110_] _117_ d_lut_NOR2X1
A_635_ [_114__bF$buf5 CSR_Wdata_1_ _112__bF$buf5] _118_ d_lut_OAI21X1
A_636_ [_118_ _117_ _116_] _28__1_ d_lut_OAI21X1
A_637_ [CSR_Wen_traps_bF$buf2 CSR_mcause_2_] _119_ d_lut_NAND2X1
A_638_ [_11__bF$buf3 _109_ _29_] _120_ d_lut_OAI21X1
A_639_ [_114__bF$buf4 CSR_Wdata_2_ _120_] _121_ d_lut_OAI21X1
A_640_ [_121_ CSR_Wen_traps_bF$buf1 _119_] _28__2_ d_lut_OAI21X1
A_641_ [CSR_Wen_traps_bF$buf0 CSR_mcause_3_] _122_ d_lut_NAND2X1
A_642_ [mcause_3_ _110_] _123_ d_lut_NOR2X1
A_643_ [_114__bF$buf3 CSR_Wdata_3_ _112__bF$buf4] _124_ d_lut_OAI21X1
A_644_ [_124_ _123_ _122_] _28__3_ d_lut_OAI21X1
A_645_ [_114__bF$buf2 CSR_Wdata_4_ _112__bF$buf3] _125_ d_lut_OAI21X1
A_646_ [_42_ _114__bF$buf1 _125_] _28__4_ d_lut_AOI21X1
A_647_ [_114__bF$buf0 CSR_Wdata_5_ _112__bF$buf2] _126_ d_lut_OAI21X1
A_648_ [_44_ _114__bF$buf6 _126_] _28__5_ d_lut_AOI21X1
A_649_ [_114__bF$buf5 CSR_Wdata_6_ _112__bF$buf1] _127_ d_lut_OAI21X1
A_650_ [_46_ _114__bF$buf4 _127_] _28__6_ d_lut_AOI21X1
A_651_ [mcause_7_ _110_] _128_ d_lut_NOR2X1
A_652_ [_114__bF$buf3 CSR_Wdata_7_ _112__bF$buf0] _129_ d_lut_OAI21X1
A_653_ [_128_ _129_] _28__7_ d_lut_NOR2X1