* XSpice netlist created from SPICE and liberty sources by spi2xspice.py
*SPICE netlist created from verilog structural netlist module RISCV32I by vlog2Spice (qflow)
** Start of included library /usr/share/qflow/tech/osu035/osu035_stdcells.sp
** End of included library /usr/share/qflow/tech/osu035/osu035_stdcells.sp
.subckt RISCV32I a_vdd a_gnd a_CLK a_DMEM_ADDR_0_ a_DMEM_ADDR_1_ a_DMEM_ADDR_2_ a_DMEM_ADDR_3_ a_DMEM_ADDR_4_ a_DMEM_ADDR_5_ a_DMEM_ADDR_6_ a_DMEM_ADDR_7_ a_DMEM_ADDR_8_ a_DMEM_ADDR_9_ a_DMEM_ADDR_10_ a_DMEM_ADDR_11_ a_DMEM_ADDR_12_ a_DMEM_ADDR_13_ a_DMEM_ADDR_14_ a_DMEM_ADDR_15_ a_DMEM_ADDR_16_ a_DMEM_ADDR_17_ a_DMEM_ADDR_18_ a_DMEM_ADDR_19_ a_DMEM_ADDR_20_ a_DMEM_ADDR_21_ a_DMEM_ADDR_22_ a_DMEM_ADDR_23_ a_DMEM_ADDR_24_ a_DMEM_ADDR_25_ a_DMEM_ADDR_26_ a_DMEM_ADDR_27_ a_DMEM_ADDR_28_ a_DMEM_ADDR_29_ a_DMEM_ADDR_30_ a_DMEM_ADDR_31_ a_DMEM_DATA_L_0_ a_DMEM_DATA_L_1_ a_DMEM_DATA_L_2_ a_DMEM_DATA_L_3_ a_DMEM_DATA_L_4_ a_DMEM_DATA_L_5_ a_DMEM_DATA_L_6_ a_DMEM_DATA_L_7_ a_DMEM_DATA_L_8_ a_DMEM_DATA_L_9_ a_DMEM_DATA_L_10_ a_DMEM_DATA_L_11_ a_DMEM_DATA_L_12_ a_DMEM_DATA_L_13_ a_DMEM_DATA_L_14_ a_DMEM_DATA_L_15_ a_DMEM_DATA_L_16_ a_DMEM_DATA_L_17_ a_DMEM_DATA_L_18_ a_DMEM_DATA_L_19_ a_DMEM_DATA_L_20_ a_DMEM_DATA_L_21_ a_DMEM_DATA_L_22_ a_DMEM_DATA_L_23_ a_DMEM_DATA_L_24_ a_DMEM_DATA_L_25_ a_DMEM_DATA_L_26_ a_DMEM_DATA_L_27_ a_DMEM_DATA_L_28_ a_DMEM_DATA_L_29_ a_DMEM_DATA_L_30_ a_DMEM_DATA_L_31_ a_DMEM_DATA_S_0_ a_DMEM_DATA_S_1_ a_DMEM_DATA_S_2_ a_DMEM_DATA_S_3_ a_DMEM_DATA_S_4_ a_DMEM_DATA_S_5_ a_DMEM_DATA_S_6_ a_DMEM_DATA_S_7_ a_DMEM_DATA_S_8_ a_DMEM_DATA_S_9_ a_DMEM_DATA_S_10_ a_DMEM_DATA_S_11_ a_DMEM_DATA_S_12_ a_DMEM_DATA_S_13_ a_DMEM_DATA_S_14_ a_DMEM_DATA_S_15_ a_DMEM_DATA_S_16_ a_DMEM_DATA_S_17_ a_DMEM_DATA_S_18_ a_DMEM_DATA_S_19_ a_DMEM_DATA_S_20_ a_DMEM_DATA_S_21_ a_DMEM_DATA_S_22_ a_DMEM_DATA_S_23_ a_DMEM_DATA_S_24_ a_DMEM_DATA_S_25_ a_DMEM_DATA_S_26_ a_DMEM_DATA_S_27_ a_DMEM_DATA_S_28_ a_DMEM_DATA_S_29_ a_DMEM_DATA_S_30_ a_DMEM_DATA_S_31_ a_DMEM_WEN a_IMEM_ADDR_0_ a_IMEM_ADDR_1_ a_IMEM_ADDR_2_ a_IMEM_ADDR_3_ a_IMEM_ADDR_4_ a_IMEM_ADDR_5_ a_IMEM_ADDR_6_ a_IMEM_ADDR_7_ a_IMEM_ADDR_8_ a_IMEM_ADDR_9_ a_IMEM_ADDR_10_ a_IMEM_ADDR_11_ a_IMEM_ADDR_12_ a_IMEM_ADDR_13_ a_IMEM_ADDR_14_ a_IMEM_ADDR_15_ a_IMEM_ADDR_16_ a_IMEM_ADDR_17_ a_IMEM_ADDR_18_ a_IMEM_ADDR_19_ a_IMEM_ADDR_20_ a_IMEM_ADDR_21_ a_IMEM_ADDR_22_ a_IMEM_ADDR_23_ a_IMEM_ADDR_24_ a_IMEM_ADDR_25_ a_IMEM_ADDR_26_ a_IMEM_ADDR_27_ a_IMEM_ADDR_28_ a_IMEM_ADDR_29_ a_IMEM_ADDR_30_ a_IMEM_ADDR_31_ a_IMEM_DATA_0_ a_IMEM_DATA_1_ a_IMEM_DATA_2_ a_IMEM_DATA_3_ a_IMEM_DATA_4_ a_IMEM_DATA_5_ a_IMEM_DATA_6_ a_IMEM_DATA_7_ a_IMEM_DATA_8_ a_IMEM_DATA_9_ a_IMEM_DATA_10_ a_IMEM_DATA_11_ a_IMEM_DATA_12_ a_IMEM_DATA_13_ a_IMEM_DATA_14_ a_IMEM_DATA_15_ a_IMEM_DATA_16_ a_IMEM_DATA_17_ a_IMEM_DATA_18_ a_IMEM_DATA_19_ a_IMEM_DATA_20_ a_IMEM_DATA_21_ a_IMEM_DATA_22_ a_IMEM_DATA_23_ a_IMEM_DATA_24_ a_IMEM_DATA_25_ a_IMEM_DATA_26_ a_IMEM_DATA_27_ a_IMEM_DATA_28_ a_IMEM_DATA_29_ a_IMEM_DATA_30_ a_IMEM_DATA_31_ a_IRQ
ABUFX2_insert1424 [\datapath.idinstr\_16_] \datapath.idinstr_16_hier0_bF$buf0\ d_lut_BUFX2
ABUFX2_insert1423 [\datapath.idinstr\_16_] \datapath.idinstr_16_hier0_bF$buf1\ d_lut_BUFX2
ABUFX2_insert1422 [\datapath.idinstr\_16_] \datapath.idinstr_16_hier0_bF$buf2\ d_lut_BUFX2
ABUFX2_insert1421 [\datapath.idinstr\_16_] \datapath.idinstr_16_hier0_bF$buf3\ d_lut_BUFX2
ABUFX2_insert1420 [\datapath.idinstr\_16_] \datapath.idinstr_16_hier0_bF$buf4\ d_lut_BUFX2
ABUFX2_insert1419 [\datapath.idinstr\_16_] \datapath.idinstr_16_hier0_bF$buf5\ d_lut_BUFX2
ABUFX2_insert1418 [\datapath.idinstr\_16_] \datapath.idinstr_16_hier0_bF$buf6\ d_lut_BUFX2
ABUFX2_insert1417 [_7463_] _7463__hier0_bF$buf0 d_lut_BUFX2
ABUFX2_insert1416 [_7463_] _7463__hier0_bF$buf1 d_lut_BUFX2
ABUFX2_insert1415 [_7463_] _7463__hier0_bF$buf2 d_lut_BUFX2
ABUFX2_insert1414 [_7463_] _7463__hier0_bF$buf3 d_lut_BUFX2
ABUFX2_insert1413 [_7463_] _7463__hier0_bF$buf4 d_lut_BUFX2
ABUFX2_insert1412 [_7463_] _7463__hier0_bF$buf5 d_lut_BUFX2
ABUFX2_insert1411 [_7463_] _7463__hier0_bF$buf6 d_lut_BUFX2
ACLKBUF1_insert1410 [CLK] CLK_hier0_bF$buf0 d_lut_CLKBUF1
ACLKBUF1_insert1409 [CLK] CLK_hier0_bF$buf1 d_lut_CLKBUF1
ACLKBUF1_insert1408 [CLK] CLK_hier0_bF$buf2 d_lut_CLKBUF1
ACLKBUF1_insert1407 [CLK] CLK_hier0_bF$buf3 d_lut_CLKBUF1
ACLKBUF1_insert1406 [CLK] CLK_hier0_bF$buf4 d_lut_CLKBUF1
ACLKBUF1_insert1405 [CLK] CLK_hier0_bF$buf5 d_lut_CLKBUF1
ACLKBUF1_insert1404 [CLK] CLK_hier0_bF$buf6 d_lut_CLKBUF1
ACLKBUF1_insert1403 [CLK] CLK_hier0_bF$buf7 d_lut_CLKBUF1
ACLKBUF1_insert1402 [CLK] CLK_hier0_bF$buf8 d_lut_CLKBUF1
ACLKBUF1_insert1401 [CLK] CLK_hier0_bF$buf9 d_lut_CLKBUF1
ACLKBUF1_insert1400 [CLK] CLK_hier0_bF$buf10 d_lut_CLKBUF1
ACLKBUF1_insert1399 [CLK] CLK_hier0_bF$buf11 d_lut_CLKBUF1
ABUFX2_insert1398 [\datapath.idinstr\_17_] \datapath.idinstr_17_hier0_bF$buf0\ d_lut_BUFX2
ABUFX2_insert1397 [\datapath.idinstr\_17_] \datapath.idinstr_17_hier0_bF$buf1\ d_lut_BUFX2
ABUFX2_insert1396 [\datapath.idinstr\_17_] \datapath.idinstr_17_hier0_bF$buf2\ d_lut_BUFX2
ABUFX2_insert1395 [\datapath.idinstr\_17_] \datapath.idinstr_17_hier0_bF$buf3\ d_lut_BUFX2
ABUFX2_insert1394 [\datapath.idinstr\_17_] \datapath.idinstr_17_hier0_bF$buf4\ d_lut_BUFX2
ABUFX2_insert1393 [\datapath.idinstr\_17_] \datapath.idinstr_17_hier0_bF$buf5\ d_lut_BUFX2
ABUFX2_insert1392 [\datapath.idinstr\_20_] \datapath.idinstr_20_hier0_bF$buf0\ d_lut_BUFX2
ABUFX2_insert1391 [\datapath.idinstr\_20_] \datapath.idinstr_20_hier0_bF$buf1\ d_lut_BUFX2
ABUFX2_insert1390 [\datapath.idinstr\_20_] \datapath.idinstr_20_hier0_bF$buf2\ d_lut_BUFX2
ABUFX2_insert1389 [\datapath.idinstr\_20_] \datapath.idinstr_20_hier0_bF$buf3\ d_lut_BUFX2
ABUFX2_insert1388 [\datapath.idinstr\_20_] \datapath.idinstr_20_hier0_bF$buf4\ d_lut_BUFX2
ABUFX2_insert1387 [\datapath.idinstr\_20_] \datapath.idinstr_20_hier0_bF$buf5\ d_lut_BUFX2
ABUFX2_insert1386 [\datapath.idinstr\_20_] \datapath.idinstr_20_hier0_bF$buf6\ d_lut_BUFX2
ABUFX2_insert1385 [_5768_] _5768__hier0_bF$buf0 d_lut_BUFX2
ABUFX2_insert1384 [_5768_] _5768__hier0_bF$buf1 d_lut_BUFX2
ABUFX2_insert1383 [_5768_] _5768__hier0_bF$buf2 d_lut_BUFX2
ABUFX2_insert1382 [_5768_] _5768__hier0_bF$buf3 d_lut_BUFX2
ABUFX2_insert1381 [_5768_] _5768__hier0_bF$buf4 d_lut_BUFX2
ABUFX2_insert1380 [_5768_] _5768__hier0_bF$buf5 d_lut_BUFX2
ABUFX2_insert1379 [\datapath.idinstr\_15_] \datapath.idinstr_15_hier0_bF$buf0\ d_lut_BUFX2
ABUFX2_insert1378 [\datapath.idinstr\_15_] \datapath.idinstr_15_hier0_bF$buf1\ d_lut_BUFX2
ABUFX2_insert1377 [\datapath.idinstr\_15_] \datapath.idinstr_15_hier0_bF$buf2\ d_lut_BUFX2
ABUFX2_insert1376 [\datapath.idinstr\_15_] \datapath.idinstr_15_hier0_bF$buf3\ d_lut_BUFX2
ABUFX2_insert1375 [\datapath.idinstr\_15_] \datapath.idinstr_15_hier0_bF$buf4\ d_lut_BUFX2
ABUFX2_insert1374 [\datapath.idinstr\_15_] \datapath.idinstr_15_hier0_bF$buf5\ d_lut_BUFX2
ABUFX2_insert1373 [\datapath.idinstr\_15_] \datapath.idinstr_15_hier0_bF$buf6\ d_lut_BUFX2
ABUFX2_insert1372 [\datapath.idinstr\_21_] \datapath.idinstr_21_hier0_bF$buf0\ d_lut_BUFX2
ABUFX2_insert1371 [\datapath.idinstr\_21_] \datapath.idinstr_21_hier0_bF$buf1\ d_lut_BUFX2
ABUFX2_insert1370 [\datapath.idinstr\_21_] \datapath.idinstr_21_hier0_bF$buf2\ d_lut_BUFX2
ABUFX2_insert1369 [\datapath.idinstr\_21_] \datapath.idinstr_21_hier0_bF$buf3\ d_lut_BUFX2
ABUFX2_insert1368 [\datapath.idinstr\_21_] \datapath.idinstr_21_hier0_bF$buf4\ d_lut_BUFX2
ABUFX2_insert1367 [\datapath.idinstr\_21_] \datapath.idinstr_21_hier0_bF$buf5\ d_lut_BUFX2
ABUFX2_insert1366 [\datapath.idinstr\_21_] \datapath.idinstr_21_hier0_bF$buf6\ d_lut_BUFX2
ABUFX2_insert1365 [_4843_] _4843__bF$buf0 d_lut_BUFX2
ABUFX2_insert1364 [_4843_] _4843__bF$buf1 d_lut_BUFX2
ABUFX2_insert1363 [_4843_] _4843__bF$buf2 d_lut_BUFX2
ABUFX2_insert1362 [_4843_] _4843__bF$buf3 d_lut_BUFX2
ABUFX2_insert1361 [_4843_] _4843__bF$buf4 d_lut_BUFX2
ABUFX2_insert1360 [_5763_] _5763__bF$buf0 d_lut_BUFX2
ABUFX2_insert1359 [_5763_] _5763__bF$buf1 d_lut_BUFX2
ABUFX2_insert1358 [_5763_] _5763__bF$buf2 d_lut_BUFX2
ABUFX2_insert1357 [_5763_] _5763__bF$buf3 d_lut_BUFX2
ABUFX2_insert1356 [_5763_] _5763__bF$buf4 d_lut_BUFX2
ABUFX2_insert1355 [_5763_] _5763__bF$buf5 d_lut_BUFX2
ABUFX2_insert1354 [_5763_] _5763__bF$buf6 d_lut_BUFX2
ABUFX2_insert1353 [_5763_] _5763__bF$buf7 d_lut_BUFX2
ABUFX2_insert1352 [_5763_] _5763__bF$buf8 d_lut_BUFX2
ABUFX2_insert1351 [_5763_] _5763__bF$buf9 d_lut_BUFX2
ABUFX2_insert1350 [_5763_] _5763__bF$buf10 d_lut_BUFX2
ABUFX2_insert1349 [_5346_] _5346__bF$buf0 d_lut_BUFX2
ABUFX2_insert1348 [_5346_] _5346__bF$buf1 d_lut_BUFX2
ABUFX2_insert1347 [_5346_] _5346__bF$buf2 d_lut_BUFX2
ABUFX2_insert1346 [_5346_] _5346__bF$buf3 d_lut_BUFX2
ABUFX2_insert1345 [_5346_] _5346__bF$buf4 d_lut_BUFX2
ABUFX2_insert1344 [_5346_] _5346__bF$buf5 d_lut_BUFX2
ABUFX2_insert1343 [_5346_] _5346__bF$buf6 d_lut_BUFX2
ABUFX2_insert1342 [_5346_] _5346__bF$buf7 d_lut_BUFX2
ABUFX2_insert1341 [_5766_] _5766__bF$buf0 d_lut_BUFX2
ABUFX2_insert1340 [_5766_] _5766__bF$buf1 d_lut_BUFX2
ABUFX2_insert1339 [_5766_] _5766__bF$buf2 d_lut_BUFX2
ABUFX2_insert1338 [_5766_] _5766__bF$buf3 d_lut_BUFX2
ABUFX2_insert1337 [_5766_] _5766__bF$buf4 d_lut_BUFX2
ABUFX2_insert1336 [_5766_] _5766__bF$buf5 d_lut_BUFX2
ABUFX2_insert1335 [_5766_] _5766__bF$buf6 d_lut_BUFX2
ABUFX2_insert1334 [_5766_] _5766__bF$buf7 d_lut_BUFX2
ABUFX2_insert1333 [_5728_] _5728__bF$buf0 d_lut_BUFX2
ABUFX2_insert1332 [_5728_] _5728__bF$buf1 d_lut_BUFX2
ABUFX2_insert1331 [_5728_] _5728__bF$buf2 d_lut_BUFX2
ABUFX2_insert1330 [_5728_] _5728__bF$buf3 d_lut_BUFX2
ABUFX2_insert1329 [_5728_] _5728__bF$buf4 d_lut_BUFX2
ABUFX2_insert1328 [_5728_] _5728__bF$buf5 d_lut_BUFX2
ABUFX2_insert1327 [_5728_] _5728__bF$buf6 d_lut_BUFX2
ABUFX2_insert1326 [_5728_] _5728__bF$buf7 d_lut_BUFX2
ABUFX2_insert1325 [_4811_] _4811__bF$buf0 d_lut_BUFX2
ABUFX2_insert1324 [_4811_] _4811__bF$buf1 d_lut_BUFX2
ABUFX2_insert1323 [_4811_] _4811__bF$buf2 d_lut_BUFX2
ABUFX2_insert1322 [_4811_] _4811__bF$buf3 d_lut_BUFX2
ABUFX2_insert1321 [_4811_] _4811__bF$buf4 d_lut_BUFX2
ABUFX2_insert1320 [_4811_] _4811__bF$buf5 d_lut_BUFX2
ABUFX2_insert1319 [_4811_] _4811__bF$buf6 d_lut_BUFX2
ABUFX2_insert1318 [_4811_] _4811__bF$buf7 d_lut_BUFX2
ABUFX2_insert1317 [_5099_] _5099__bF$buf0 d_lut_BUFX2
ABUFX2_insert1316 [_5099_] _5099__bF$buf1 d_lut_BUFX2
ABUFX2_insert1315 [_5099_] _5099__bF$buf2 d_lut_BUFX2
ABUFX2_insert1314 [_5099_] _5099__bF$buf3 d_lut_BUFX2
ABUFX2_insert1313 [_5099_] _5099__bF$buf4 d_lut_BUFX2
ABUFX2_insert1312 [_5099_] _5099__bF$buf5 d_lut_BUFX2
ABUFX2_insert1311 [_5099_] _5099__bF$buf6 d_lut_BUFX2
ABUFX2_insert1310 [_5099_] _5099__bF$buf7 d_lut_BUFX2
ABUFX2_insert1309 [_4849_] _4849__bF$buf0 d_lut_BUFX2
ABUFX2_insert1308 [_4849_] _4849__bF$buf1 d_lut_BUFX2
ABUFX2_insert1307 [_4849_] _4849__bF$buf2 d_lut_BUFX2
ABUFX2_insert1306 [_4849_] _4849__bF$buf3 d_lut_BUFX2
ABUFX2_insert1305 [_4849_] _4849__bF$buf4 d_lut_BUFX2
ABUFX2_insert1304 [_5446_] _5446__bF$buf0 d_lut_BUFX2
ABUFX2_insert1303 [_5446_] _5446__bF$buf1 d_lut_BUFX2
ABUFX2_insert1302 [_5446_] _5446__bF$buf2 d_lut_BUFX2
ABUFX2_insert1301 [_5446_] _5446__bF$buf3 d_lut_BUFX2
ABUFX2_insert1300 [_5446_] _5446__bF$buf4 d_lut_BUFX2
ABUFX2_insert1299 [_5446_] _5446__bF$buf5 d_lut_BUFX2
ABUFX2_insert1298 [_5446_] _5446__bF$buf6 d_lut_BUFX2
ABUFX2_insert1297 [_5446_] _5446__bF$buf7 d_lut_BUFX2
ABUFX2_insert1296 [\datapath.idinstr_16_hier0_bF$buf6\] \datapath.idinstr_16_bF$buf0\ d_lut_BUFX2
ABUFX2_insert1295 [\datapath.idinstr_16_hier0_bF$buf5\] \datapath.idinstr_16_bF$buf1\ d_lut_BUFX2
ABUFX2_insert1294 [\datapath.idinstr_16_hier0_bF$buf4\] \datapath.idinstr_16_bF$buf2\ d_lut_BUFX2
ABUFX2_insert1293 [\datapath.idinstr_16_hier0_bF$buf3\] \datapath.idinstr_16_bF$buf3\ d_lut_BUFX2
ABUFX2_insert1292 [\datapath.idinstr_16_hier0_bF$buf2\] \datapath.idinstr_16_bF$buf4\ d_lut_BUFX2
ABUFX2_insert1291 [\datapath.idinstr_16_hier0_bF$buf1\] \datapath.idinstr_16_bF$buf5\ d_lut_BUFX2
ABUFX2_insert1290 [\datapath.idinstr_16_hier0_bF$buf0\] \datapath.idinstr_16_bF$buf6\ d_lut_BUFX2
ABUFX2_insert1289 [\datapath.idinstr_16_hier0_bF$buf6\] \datapath.idinstr_16_bF$buf7\ d_lut_BUFX2
ABUFX2_insert1288 [\datapath.idinstr_16_hier0_bF$buf5\] \datapath.idinstr_16_bF$buf8\ d_lut_BUFX2
ABUFX2_insert1287 [\datapath.idinstr_16_hier0_bF$buf4\] \datapath.idinstr_16_bF$buf9\ d_lut_BUFX2
ABUFX2_insert1286 [\datapath.idinstr_16_hier0_bF$buf3\] \datapath.idinstr_16_bF$buf10\ d_lut_BUFX2
ABUFX2_insert1285 [\datapath.idinstr_16_hier0_bF$buf2\] \datapath.idinstr_16_bF$buf11\ d_lut_BUFX2
ABUFX2_insert1284 [\datapath.idinstr_16_hier0_bF$buf1\] \datapath.idinstr_16_bF$buf12\ d_lut_BUFX2
ABUFX2_insert1283 [\datapath.idinstr_16_hier0_bF$buf0\] \datapath.idinstr_16_bF$buf13\ d_lut_BUFX2
ABUFX2_insert1282 [\datapath.idinstr_16_hier0_bF$buf6\] \datapath.idinstr_16_bF$buf14\ d_lut_BUFX2
ABUFX2_insert1281 [\datapath.idinstr_16_hier0_bF$buf5\] \datapath.idinstr_16_bF$buf15\ d_lut_BUFX2
ABUFX2_insert1280 [\datapath.idinstr_16_hier0_bF$buf4\] \datapath.idinstr_16_bF$buf16\ d_lut_BUFX2
ABUFX2_insert1279 [\datapath.idinstr_16_hier0_bF$buf3\] \datapath.idinstr_16_bF$buf17\ d_lut_BUFX2
ABUFX2_insert1278 [\datapath.idinstr_16_hier0_bF$buf2\] \datapath.idinstr_16_bF$buf18\ d_lut_BUFX2
ABUFX2_insert1277 [\datapath.idinstr_16_hier0_bF$buf1\] \datapath.idinstr_16_bF$buf19\ d_lut_BUFX2
ABUFX2_insert1276 [\datapath.idinstr_16_hier0_bF$buf0\] \datapath.idinstr_16_bF$buf20\ d_lut_BUFX2
ABUFX2_insert1275 [\datapath.idinstr_16_hier0_bF$buf6\] \datapath.idinstr_16_bF$buf21\ d_lut_BUFX2
ABUFX2_insert1274 [\datapath.idinstr_16_hier0_bF$buf5\] \datapath.idinstr_16_bF$buf22\ d_lut_BUFX2
ABUFX2_insert1273 [\datapath.idinstr_16_hier0_bF$buf4\] \datapath.idinstr_16_bF$buf23\ d_lut_BUFX2
ABUFX2_insert1272 [\datapath.idinstr_16_hier0_bF$buf3\] \datapath.idinstr_16_bF$buf24\ d_lut_BUFX2
ABUFX2_insert1271 [\datapath.idinstr_16_hier0_bF$buf2\] \datapath.idinstr_16_bF$buf25\ d_lut_BUFX2
ABUFX2_insert1270 [\datapath.idinstr_16_hier0_bF$buf1\] \datapath.idinstr_16_bF$buf26\ d_lut_BUFX2
ABUFX2_insert1269 [\datapath.idinstr_16_hier0_bF$buf0\] \datapath.idinstr_16_bF$buf27\ d_lut_BUFX2
ABUFX2_insert1268 [\datapath.idinstr_16_hier0_bF$buf6\] \datapath.idinstr_16_bF$buf28\ d_lut_BUFX2
ABUFX2_insert1267 [\datapath.idinstr_16_hier0_bF$buf5\] \datapath.idinstr_16_bF$buf29\ d_lut_BUFX2
ABUFX2_insert1266 [\datapath.idinstr_16_hier0_bF$buf4\] \datapath.idinstr_16_bF$buf30\ d_lut_BUFX2
ABUFX2_insert1265 [\datapath.idinstr_16_hier0_bF$buf3\] \datapath.idinstr_16_bF$buf31\ d_lut_BUFX2
ABUFX2_insert1264 [\datapath.idinstr_16_hier0_bF$buf2\] \datapath.idinstr_16_bF$buf32\ d_lut_BUFX2
ABUFX2_insert1263 [\datapath.idinstr_16_hier0_bF$buf1\] \datapath.idinstr_16_bF$buf33\ d_lut_BUFX2
ABUFX2_insert1262 [\datapath.idinstr_16_hier0_bF$buf0\] \datapath.idinstr_16_bF$buf34\ d_lut_BUFX2
ABUFX2_insert1261 [\datapath.idinstr_16_hier0_bF$buf6\] \datapath.idinstr_16_bF$buf35\ d_lut_BUFX2
ABUFX2_insert1260 [\datapath.idinstr_16_hier0_bF$buf5\] \datapath.idinstr_16_bF$buf36\ d_lut_BUFX2
ABUFX2_insert1259 [\datapath.idinstr_16_hier0_bF$buf4\] \datapath.idinstr_16_bF$buf37\ d_lut_BUFX2
ABUFX2_insert1258 [\datapath.idinstr_16_hier0_bF$buf3\] \datapath.idinstr_16_bF$buf38\ d_lut_BUFX2
ABUFX2_insert1257 [\datapath.idinstr_16_hier0_bF$buf2\] \datapath.idinstr_16_bF$buf39\ d_lut_BUFX2
ABUFX2_insert1256 [\datapath.idinstr_16_hier0_bF$buf1\] \datapath.idinstr_16_bF$buf40\ d_lut_BUFX2
ABUFX2_insert1255 [\datapath.idinstr_16_hier0_bF$buf0\] \datapath.idinstr_16_bF$buf41\ d_lut_BUFX2
ABUFX2_insert1254 [\datapath.idinstr_16_hier0_bF$buf6\] \datapath.idinstr_16_bF$buf42\ d_lut_BUFX2
ABUFX2_insert1253 [\datapath.idinstr_16_hier0_bF$buf5\] \datapath.idinstr_16_bF$buf43\ d_lut_BUFX2
ABUFX2_insert1252 [\datapath.idinstr_16_hier0_bF$buf4\] \datapath.idinstr_16_bF$buf44\ d_lut_BUFX2
ABUFX2_insert1251 [\datapath.idinstr_16_hier0_bF$buf3\] \datapath.idinstr_16_bF$buf45\ d_lut_BUFX2
ABUFX2_insert1250 [\datapath.idinstr_16_hier0_bF$buf2\] \datapath.idinstr_16_bF$buf46\ d_lut_BUFX2
ABUFX2_insert1249 [\datapath.idinstr_16_hier0_bF$buf1\] \datapath.idinstr_16_bF$buf47\ d_lut_BUFX2
ABUFX2_insert1248 [\datapath.idinstr_16_hier0_bF$buf0\] \datapath.idinstr_16_bF$buf48\ d_lut_BUFX2
ABUFX2_insert1247 [\datapath.idinstr_16_hier0_bF$buf6\] \datapath.idinstr_16_bF$buf49\ d_lut_BUFX2
ABUFX2_insert1246 [\datapath.idinstr_16_hier0_bF$buf5\] \datapath.idinstr_16_bF$buf50\ d_lut_BUFX2
ABUFX2_insert1245 [\datapath.idinstr_16_hier0_bF$buf4\] \datapath.idinstr_16_bF$buf51\ d_lut_BUFX2
ABUFX2_insert1244 [_4855_] _4855__bF$buf0 d_lut_BUFX2
ABUFX2_insert1243 [_4855_] _4855__bF$buf1 d_lut_BUFX2
ABUFX2_insert1242 [_4855_] _4855__bF$buf2 d_lut_BUFX2
ABUFX2_insert1241 [_4855_] _4855__bF$buf3 d_lut_BUFX2
ABUFX2_insert1240 [_4855_] _4855__bF$buf4 d_lut_BUFX2
ABUFX2_insert1239 [_4817_] _4817__bF$buf0 d_lut_BUFX2
ABUFX2_insert1238 [_4817_] _4817__bF$buf1 d_lut_BUFX2
ABUFX2_insert1237 [_4817_] _4817__bF$buf2 d_lut_BUFX2
ABUFX2_insert1236 [_4817_] _4817__bF$buf3 d_lut_BUFX2
ABUFX2_insert1235 [_4817_] _4817__bF$buf4 d_lut_BUFX2
ABUFX2_insert1234 [_5490_] _5490__bF$buf0 d_lut_BUFX2
ABUFX2_insert1233 [_5490_] _5490__bF$buf1 d_lut_BUFX2
ABUFX2_insert1232 [_5490_] _5490__bF$buf2 d_lut_BUFX2
ABUFX2_insert1231 [_5490_] _5490__bF$buf3 d_lut_BUFX2
ABUFX2_insert1230 [_5490_] _5490__bF$buf4 d_lut_BUFX2
ABUFX2_insert1229 [_5490_] _5490__bF$buf5 d_lut_BUFX2
ABUFX2_insert1228 [_5490_] _5490__bF$buf6 d_lut_BUFX2
ABUFX2_insert1227 [_5490_] _5490__bF$buf7 d_lut_BUFX2
ABUFX2_insert1226 [_5032_] _5032__bF$buf0 d_lut_BUFX2
ABUFX2_insert1225 [_5032_] _5032__bF$buf1 d_lut_BUFX2
ABUFX2_insert1224 [_5032_] _5032__bF$buf2 d_lut_BUFX2
ABUFX2_insert1223 [_5032_] _5032__bF$buf3 d_lut_BUFX2
ABUFX2_insert1222 [_5032_] _5032__bF$buf4 d_lut_BUFX2
ABUFX2_insert1221 [_5032_] _5032__bF$buf5 d_lut_BUFX2
ABUFX2_insert1220 [_4914_] _4914__bF$buf0 d_lut_BUFX2
ABUFX2_insert1219 [_4914_] _4914__bF$buf1 d_lut_BUFX2
ABUFX2_insert1218 [_4914_] _4914__bF$buf2 d_lut_BUFX2
ABUFX2_insert1217 [_4914_] _4914__bF$buf3 d_lut_BUFX2
ABUFX2_insert1216 [_4914_] _4914__bF$buf4 d_lut_BUFX2
ABUFX2_insert1215 [_4914_] _4914__bF$buf5 d_lut_BUFX2
ABUFX2_insert1214 [_4914_] _4914__bF$buf6 d_lut_BUFX2
ABUFX2_insert1213 [_4914_] _4914__bF$buf7 d_lut_BUFX2
ABUFX2_insert1212 [_4914_] _4914__bF$buf8 d_lut_BUFX2
ABUFX2_insert1211 [_4914_] _4914__bF$buf9 d_lut_BUFX2
ABUFX2_insert1210 [_0__0_] _0__0_bF$buf0 d_lut_BUFX2
ABUFX2_insert1209 [_0__0_] _0__0_bF$buf1 d_lut_BUFX2
ABUFX2_insert1208 [_0__0_] _0__0_bF$buf2 d_lut_BUFX2
ABUFX2_insert1207 [_0__0_] _0__0_bF$buf3 d_lut_BUFX2
ABUFX2_insert1206 [_0__0_] _0__0_bF$buf4 d_lut_BUFX2
ABUFX2_insert1205 [_207_] _207__bF$buf0 d_lut_BUFX2
ABUFX2_insert1204 [_207_] _207__bF$buf1 d_lut_BUFX2
ABUFX2_insert1203 [_207_] _207__bF$buf2 d_lut_BUFX2
ABUFX2_insert1202 [_207_] _207__bF$buf3 d_lut_BUFX2
ABUFX2_insert1201 [_207_] _207__bF$buf4 d_lut_BUFX2
ABUFX2_insert1200 [\datapath.idinstr\_19_] \datapath.idinstr_19_bF$buf0\ d_lut_BUFX2
ABUFX2_insert1199 [\datapath.idinstr\_19_] \datapath.idinstr_19_bF$buf1\ d_lut_BUFX2
ABUFX2_insert1198 [\datapath.idinstr\_19_] \datapath.idinstr_19_bF$buf2\ d_lut_BUFX2
ABUFX2_insert1197 [\datapath.idinstr\_19_] \datapath.idinstr_19_bF$buf3\ d_lut_BUFX2
ABUFX2_insert1196 [\datapath.idinstr\_19_] \datapath.idinstr_19_bF$buf4\ d_lut_BUFX2
ABUFX2_insert1195 [\datapath.idinstr\_19_] \datapath.idinstr_19_bF$buf5\ d_lut_BUFX2
ABUFX2_insert1194 [_210_] _210__bF$buf0 d_lut_BUFX2
ABUFX2_insert1193 [_210_] _210__bF$buf1 d_lut_BUFX2
ABUFX2_insert1192 [_210_] _210__bF$buf2 d_lut_BUFX2
ABUFX2_insert1191 [_210_] _210__bF$buf3 d_lut_BUFX2
ABUFX2_insert1190 [_210_] _210__bF$buf4 d_lut_BUFX2
ABUFX2_insert1189 [_5167_] _5167__bF$buf0 d_lut_BUFX2
ABUFX2_insert1188 [_5167_] _5167__bF$buf1 d_lut_BUFX2
ABUFX2_insert1187 [_5167_] _5167__bF$buf2 d_lut_BUFX2
ABUFX2_insert1186 [_5167_] _5167__bF$buf3 d_lut_BUFX2
ABUFX2_insert1185 [_5167_] _5167__bF$buf4 d_lut_BUFX2
ABUFX2_insert1184 [_3424_] _3424__bF$buf0 d_lut_BUFX2
ABUFX2_insert1183 [_3424_] _3424__bF$buf1 d_lut_BUFX2
ABUFX2_insert1182 [_3424_] _3424__bF$buf2 d_lut_BUFX2
ABUFX2_insert1181 [_3424_] _3424__bF$buf3 d_lut_BUFX2
ABUFX2_insert1180 [\datapath.idinstr\_22_] \datapath.idinstr_22_bF$buf0\ d_lut_BUFX2
ABUFX2_insert1179 [\datapath.idinstr\_22_] \datapath.idinstr_22_bF$buf1\ d_lut_BUFX2
ABUFX2_insert1178 [\datapath.idinstr\_22_] \datapath.idinstr_22_bF$buf2\ d_lut_BUFX2
ABUFX2_insert1177 [\datapath.idinstr\_22_] \datapath.idinstr_22_bF$buf3\ d_lut_BUFX2
ABUFX2_insert1176 [\datapath.idinstr\_22_] \datapath.idinstr_22_bF$buf4\ d_lut_BUFX2
ABUFX2_insert1175 [\datapath.idinstr\_22_] \datapath.idinstr_22_bF$buf5\ d_lut_BUFX2
ABUFX2_insert1174 [\datapath.idinstr\_22_] \datapath.idinstr_22_bF$buf6\ d_lut_BUFX2
ABUFX2_insert1173 [\datapath.idinstr\_22_] \datapath.idinstr_22_bF$buf7\ d_lut_BUFX2
ABUFX2_insert1172 [\datapath.idinstr\_22_] \datapath.idinstr_22_bF$buf8\ d_lut_BUFX2
ABUFX2_insert1171 [\datapath.idinstr\_22_] \datapath.idinstr_22_bF$buf9\ d_lut_BUFX2
ABUFX2_insert1170 [\datapath.idinstr\_22_] \datapath.idinstr_22_bF$buf10\ d_lut_BUFX2
ABUFX2_insert1169 [\datapath.idinstr\_22_] \datapath.idinstr_22_bF$buf11\ d_lut_BUFX2
ABUFX2_insert1168 [\datapath.idinstr\_22_] \datapath.idinstr_22_bF$buf12\ d_lut_BUFX2
ABUFX2_insert1167 [\datapath.idinstr\_22_] \datapath.idinstr_22_bF$buf13\ d_lut_BUFX2
ABUFX2_insert1166 [\datapath.idinstr\_22_] \datapath.idinstr_22_bF$buf14\ d_lut_BUFX2
ABUFX2_insert1165 [\datapath.idinstr\_22_] \datapath.idinstr_22_bF$buf15\ d_lut_BUFX2
ABUFX2_insert1164 [_4861_] _4861__bF$buf0 d_lut_BUFX2
ABUFX2_insert1163 [_4861_] _4861__bF$buf1 d_lut_BUFX2
ABUFX2_insert1162 [_4861_] _4861__bF$buf2 d_lut_BUFX2
ABUFX2_insert1161 [_4861_] _4861__bF$buf3 d_lut_BUFX2
ABUFX2_insert1160 [_4861_] _4861__bF$buf4 d_lut_BUFX2
ABUFX2_insert1159 [_4823_] _4823__bF$buf0 d_lut_BUFX2
ABUFX2_insert1158 [_4823_] _4823__bF$buf1 d_lut_BUFX2
ABUFX2_insert1157 [_4823_] _4823__bF$buf2 d_lut_BUFX2
ABUFX2_insert1156 [_4823_] _4823__bF$buf3 d_lut_BUFX2
ABUFX2_insert1155 [_4823_] _4823__bF$buf4 d_lut_BUFX2
ABUFX2_insert1154 [_213_] _213__bF$buf0 d_lut_BUFX2
ABUFX2_insert1153 [_213_] _213__bF$buf1 d_lut_BUFX2
ABUFX2_insert1152 [_213_] _213__bF$buf2 d_lut_BUFX2
ABUFX2_insert1151 [_213_] _213__bF$buf3 d_lut_BUFX2
ABUFX2_insert1150 [_213_] _213__bF$buf4 d_lut_BUFX2
ABUFX2_insert1149 [_9059_] _9059__bF$buf0 d_lut_BUFX2
ABUFX2_insert1148 [_9059_] _9059__bF$buf1 d_lut_BUFX2
ABUFX2_insert1147 [_9059_] _9059__bF$buf2 d_lut_BUFX2
ABUFX2_insert1146 [_9059_] _9059__bF$buf3 d_lut_BUFX2
ABUFX2_insert1145 [_9059_] _9059__bF$buf4 d_lut_BUFX2
ABUFX2_insert1144 [_2031_] _2031__bF$buf0 d_lut_BUFX2
ABUFX2_insert1143 [_2031_] _2031__bF$buf1 d_lut_BUFX2
ABUFX2_insert1142 [_2031_] _2031__bF$buf2 d_lut_BUFX2
ABUFX2_insert1141 [_2031_] _2031__bF$buf3 d_lut_BUFX2
ABUFX2_insert1140 [_310_] _310__bF$buf0 d_lut_BUFX2
ABUFX2_insert1139 [_310_] _310__bF$buf1 d_lut_BUFX2
ABUFX2_insert1138 [_310_] _310__bF$buf2 d_lut_BUFX2
ABUFX2_insert1137 [_310_] _310__bF$buf3 d_lut_BUFX2
ABUFX2_insert1136 [_310_] _310__bF$buf4 d_lut_BUFX2
ABUFX2_insert1135 [_9159_] _9159__bF$buf0 d_lut_BUFX2
ABUFX2_insert1134 [_9159_] _9159__bF$buf1 d_lut_BUFX2
ABUFX2_insert1133 [_9159_] _9159__bF$buf2 d_lut_BUFX2
ABUFX2_insert1132 [_9159_] _9159__bF$buf3 d_lut_BUFX2
ABUFX2_insert1131 [_9159_] _9159__bF$buf4 d_lut_BUFX2
ABUFX2_insert1130 [_9159_] _9159__bF$buf5 d_lut_BUFX2
ABUFX2_insert1129 [_9159_] _9159__bF$buf6 d_lut_BUFX2
ABUFX2_insert1128 [_9159_] _9159__bF$buf7 d_lut_BUFX2
ABUFX2_insert1127 [_4867_] _4867__bF$buf0 d_lut_BUFX2
ABUFX2_insert1126 [_4867_] _4867__bF$buf1 d_lut_BUFX2
ABUFX2_insert1125 [_4867_] _4867__bF$buf2 d_lut_BUFX2
ABUFX2_insert1124 [_4867_] _4867__bF$buf3 d_lut_BUFX2
ABUFX2_insert1123 [_4867_] _4867__bF$buf4 d_lut_BUFX2
ABUFX2_insert1122 [_410_] _410__bF$buf0 d_lut_BUFX2
ABUFX2_insert1121 [_410_] _410__bF$buf1 d_lut_BUFX2
ABUFX2_insert1120 [_410_] _410__bF$buf2 d_lut_BUFX2
ABUFX2_insert1119 [_410_] _410__bF$buf3 d_lut_BUFX2
ABUFX2_insert1118 [_410_] _410__bF$buf4 d_lut_BUFX2
ABUFX2_insert1117 [_4829_] _4829__bF$buf0 d_lut_BUFX2
ABUFX2_insert1116 [_4829_] _4829__bF$buf1 d_lut_BUFX2
ABUFX2_insert1115 [_4829_] _4829__bF$buf2 d_lut_BUFX2
ABUFX2_insert1114 [_4829_] _4829__bF$buf3 d_lut_BUFX2
ABUFX2_insert1113 [_4829_] _4829__bF$buf4 d_lut_BUFX2
ABUFX2_insert1112 [\datapath.alu.b\_0_] \datapath.alu.b_0_bF$buf0\ d_lut_BUFX2
ABUFX2_insert1111 [\datapath.alu.b\_0_] \datapath.alu.b_0_bF$buf1\ d_lut_BUFX2
ABUFX2_insert1110 [\datapath.alu.b\_0_] \datapath.alu.b_0_bF$buf2\ d_lut_BUFX2
ABUFX2_insert1109 [\datapath.alu.b\_0_] \datapath.alu.b_0_bF$buf3\ d_lut_BUFX2
ABUFX2_insert1108 [\datapath.alu.b\_0_] \datapath.alu.b_0_bF$buf4\ d_lut_BUFX2
ABUFX2_insert1107 [\datapath.alu.b\_0_] \datapath.alu.b_0_bF$buf5\ d_lut_BUFX2
ABUFX2_insert1106 [\datapath.alu.b\_0_] \datapath.alu.b_0_bF$buf6\ d_lut_BUFX2
ABUFX2_insert1105 [\datapath.alu.b\_0_] \datapath.alu.b_0_bF$buf7\ d_lut_BUFX2
ABUFX2_insert1104 [\datapath.alu.b\_0_] \datapath.alu.b_0_bF$buf8\ d_lut_BUFX2
ABUFX2_insert1103 [\datapath.alu.b\_0_] \datapath.alu.b_0_bF$buf9\ d_lut_BUFX2
ABUFX2_insert1102 [_7457_] _7457__bF$buf0 d_lut_BUFX2
ABUFX2_insert1101 [_7457_] _7457__bF$buf1 d_lut_BUFX2
ABUFX2_insert1100 [_7457_] _7457__bF$buf2 d_lut_BUFX2
ABUFX2_insert1099 [_7457_] _7457__bF$buf3 d_lut_BUFX2
ABUFX2_insert1098 [_7457_] _7457__bF$buf4 d_lut_BUFX2
ABUFX2_insert1097 [_7457_] _7457__bF$buf5 d_lut_BUFX2
ABUFX2_insert1096 [_7457_] _7457__bF$buf6 d_lut_BUFX2
ABUFX2_insert1095 [_7457_] _7457__bF$buf7 d_lut_BUFX2
ABUFX2_insert1094 [_7457_] _7457__bF$buf8 d_lut_BUFX2
ABUFX2_insert1093 [_7457_] _7457__bF$buf9 d_lut_BUFX2
ABUFX2_insert1092 [_7457_] _7457__bF$buf10 d_lut_BUFX2
ABUFX2_insert1091 [_7457_] _7457__bF$buf11 d_lut_BUFX2
ABUFX2_insert1090 [_3148_] _3148__bF$buf0 d_lut_BUFX2
ABUFX2_insert1089 [_3148_] _3148__bF$buf1 d_lut_BUFX2
ABUFX2_insert1088 [_3148_] _3148__bF$buf2 d_lut_BUFX2
ABUFX2_insert1087 [_3148_] _3148__bF$buf3 d_lut_BUFX2
ABUFX2_insert1086 [_3148_] _3148__bF$buf4 d_lut_BUFX2
ABUFX2_insert1085 [_3148_] _3148__bF$buf5 d_lut_BUFX2
ABUFX2_insert1084 [_7460_] _7460__bF$buf0 d_lut_BUFX2
ABUFX2_insert1083 [_7460_] _7460__bF$buf1 d_lut_BUFX2
ABUFX2_insert1082 [_7460_] _7460__bF$buf2 d_lut_BUFX2
ABUFX2_insert1081 [_7460_] _7460__bF$buf3 d_lut_BUFX2
ABUFX2_insert1080 [_7460_] _7460__bF$buf4 d_lut_BUFX2
ABUFX2_insert1079 [\datapath.alu.b\_3_] \datapath.alu.b_3_bF$buf0\ d_lut_BUFX2
ABUFX2_insert1078 [\datapath.alu.b\_3_] \datapath.alu.b_3_bF$buf1\ d_lut_BUFX2
ABUFX2_insert1077 [\datapath.alu.b\_3_] \datapath.alu.b_3_bF$buf2\ d_lut_BUFX2
ABUFX2_insert1076 [\datapath.alu.b\_3_] \datapath.alu.b_3_bF$buf3\ d_lut_BUFX2
ABUFX2_insert1075 [\datapath.alu.b\_3_] \datapath.alu.b_3_bF$buf4\ d_lut_BUFX2
ABUFX2_insert1074 [\datapath.alu.b\_3_] \datapath.alu.b_3_bF$buf5\ d_lut_BUFX2
ABUFX2_insert1073 [\datapath.alu.b\_3_] \datapath.alu.b_3_bF$buf6\ d_lut_BUFX2
ABUFX2_insert1072 [\datapath.alu.b\_3_] \datapath.alu.b_3_bF$buf7\ d_lut_BUFX2
ABUFX2_insert1071 [_3571_] _3571__bF$buf0 d_lut_BUFX2
ABUFX2_insert1070 [_3571_] _3571__bF$buf1 d_lut_BUFX2
ABUFX2_insert1069 [_3571_] _3571__bF$buf2 d_lut_BUFX2
ABUFX2_insert1068 [_3571_] _3571__bF$buf3 d_lut_BUFX2
ABUFX2_insert1067 [_3571_] _3571__bF$buf4 d_lut_BUFX2
ABUFX2_insert1066 [_4873_] _4873__bF$buf0 d_lut_BUFX2
ABUFX2_insert1065 [_4873_] _4873__bF$buf1 d_lut_BUFX2
ABUFX2_insert1064 [_4873_] _4873__bF$buf2 d_lut_BUFX2
ABUFX2_insert1063 [_4873_] _4873__bF$buf3 d_lut_BUFX2
ABUFX2_insert1062 [_4873_] _4873__bF$buf4 d_lut_BUFX2
ABUFX2_insert1061 [_4835_] _4835__bF$buf0 d_lut_BUFX2
ABUFX2_insert1060 [_4835_] _4835__bF$buf1 d_lut_BUFX2
ABUFX2_insert1059 [_4835_] _4835__bF$buf2 d_lut_BUFX2
ABUFX2_insert1058 [_4835_] _4835__bF$buf3 d_lut_BUFX2
ABUFX2_insert1057 [_4835_] _4835__bF$buf4 d_lut_BUFX2
ABUFX2_insert1056 [_4800_] _4800__bF$buf0 d_lut_BUFX2
ABUFX2_insert1055 [_4800_] _4800__bF$buf1 d_lut_BUFX2
ABUFX2_insert1054 [_4800_] _4800__bF$buf2 d_lut_BUFX2
ABUFX2_insert1053 [_4800_] _4800__bF$buf3 d_lut_BUFX2
ABUFX2_insert1052 [_4800_] _4800__bF$buf4 d_lut_BUFX2
ABUFX2_insert1051 [_7463__hier0_bF$buf6] _7463__bF$buf0 d_lut_BUFX2
ABUFX2_insert1050 [_7463__hier0_bF$buf5] _7463__bF$buf1 d_lut_BUFX2
ABUFX2_insert1049 [_7463__hier0_bF$buf4] _7463__bF$buf2 d_lut_BUFX2
ABUFX2_insert1048 [_7463__hier0_bF$buf3] _7463__bF$buf3 d_lut_BUFX2
ABUFX2_insert1047 [_7463__hier0_bF$buf2] _7463__bF$buf4 d_lut_BUFX2
ABUFX2_insert1046 [_7463__hier0_bF$buf1] _7463__bF$buf5 d_lut_BUFX2
ABUFX2_insert1045 [_7463__hier0_bF$buf0] _7463__bF$buf6 d_lut_BUFX2
ABUFX2_insert1044 [_7463__hier0_bF$buf6] _7463__bF$buf7 d_lut_BUFX2
ABUFX2_insert1043 [_7463__hier0_bF$buf5] _7463__bF$buf8 d_lut_BUFX2
ABUFX2_insert1042 [_7463__hier0_bF$buf4] _7463__bF$buf9 d_lut_BUFX2
ABUFX2_insert1041 [_7463__hier0_bF$buf3] _7463__bF$buf10 d_lut_BUFX2
ABUFX2_insert1040 [_7463__hier0_bF$buf2] _7463__bF$buf11 d_lut_BUFX2
ABUFX2_insert1039 [_7463__hier0_bF$buf1] _7463__bF$buf12 d_lut_BUFX2
ABUFX2_insert1038 [_7463__hier0_bF$buf0] _7463__bF$buf13 d_lut_BUFX2
ABUFX2_insert1037 [_7463__hier0_bF$buf6] _7463__bF$buf14 d_lut_BUFX2
ABUFX2_insert1036 [_7463__hier0_bF$buf5] _7463__bF$buf15 d_lut_BUFX2
ABUFX2_insert1035 [_7463__hier0_bF$buf4] _7463__bF$buf16 d_lut_BUFX2
ABUFX2_insert1034 [_7463__hier0_bF$buf3] _7463__bF$buf17 d_lut_BUFX2
ABUFX2_insert1033 [_7463__hier0_bF$buf2] _7463__bF$buf18 d_lut_BUFX2
ABUFX2_insert1032 [_7463__hier0_bF$buf1] _7463__bF$buf19 d_lut_BUFX2
ABUFX2_insert1031 [_7463__hier0_bF$buf0] _7463__bF$buf20 d_lut_BUFX2
ABUFX2_insert1030 [_7463__hier0_bF$buf6] _7463__bF$buf21 d_lut_BUFX2
ABUFX2_insert1029 [_7463__hier0_bF$buf5] _7463__bF$buf22 d_lut_BUFX2
ABUFX2_insert1028 [_7463__hier0_bF$buf4] _7463__bF$buf23 d_lut_BUFX2
ABUFX2_insert1027 [_7463__hier0_bF$buf3] _7463__bF$buf24 d_lut_BUFX2
ABUFX2_insert1026 [_7463__hier0_bF$buf2] _7463__bF$buf25 d_lut_BUFX2
ABUFX2_insert1025 [_7463__hier0_bF$buf1] _7463__bF$buf26 d_lut_BUFX2
ABUFX2_insert1024 [_7463__hier0_bF$buf0] _7463__bF$buf27 d_lut_BUFX2
ABUFX2_insert1023 [_7463__hier0_bF$buf6] _7463__bF$buf28 d_lut_BUFX2